<?xml version='1.0' encoding='utf-8'?>
<routes>
    <vType id="car" accel="2.6" decel="4.5" sigma="0.5" length="5.0" maxSpeed="33.33" />
    <trip id="trip_1440" depart="0.17" from="-34916816#4" to="325030864" type="car" departLane="best" departSpeed="max" />
    <trip id="trip_4660" depart="0.17" from="22931826#1" to="280422002" type="car" departLane="best" departSpeed="max" />
    <trip id="trip_1104" depart="0.31" from="90776168#0" to="152407669#3" type="car" departLane="best" departSpeed="max" />
    <trip id="trip_104" depart="0.73" from="1346182146" to="217404013" type="car" departLane="best" departSpeed="max" />
    <trip id="trip_2311" depart="0.98" from="4274287" to="126760930#3" type="car" departLane="best" departSpeed="max" />
    <trip id="trip_4558" depart="1.03" from="289220241" to="325030864" type="car" departLane="best" departSpeed="max" />
    <trip id="trip_4661" depart="1.18" from="-30819906" to="280422002" type="car" departLane="best" departSpeed="max" />
    <trip id="trip_1441" depart="1.30" from="-34916816#4" to="325030864" type="car" departLane="best" departSpeed="max" />
    <trip id="trip_4662" depart="1.76" from="310832991" to="280422002" type="car" departLane="best" departSpeed="max" />
    <trip id="trip_2312" depart="1.80" from="37483196#0" to="152407669#3" type="car" departLane="best" departSpeed="max" />
    <trip id="trip_2821" depart="2.52" from="144558389" to="34916816#4" type="car" departLane="best" departSpeed="max" />
    <trip id="trip_4663" depart="2.63" from="-30819906" to="-90776168#0" type="car" departLane="best" departSpeed="max" />
    <trip id="trip_7282" depart="2.69" from="21458715#2" to="895154059" type="car" departLane="best" departSpeed="max" />
    <trip id="trip_1665" depart="2.85" from="555770913" to="126760930#3" type="car" departLane="best" departSpeed="max" />
    <trip id="trip_2686" depart="3.02" from="144558389" to="280422002" type="car" departLane="best" departSpeed="max" />
    <trip id="trip_105" depart="3.04" from="1346182146" to="325030864" type="car" departLane="best" departSpeed="max" />
    <trip id="trip_2313" depart="3.69" from="-4055538#4" to="152407669#3" type="car" departLane="best" departSpeed="max" />
    <trip id="trip_2822" depart="3.92" from="144558389" to="32235541" type="car" departLane="best" departSpeed="max" />
    <trip id="trip_4664" depart="4.05" from="-30819906" to="280422002" type="car" departLane="best" departSpeed="max" />
    <trip id="trip_6505" depart="4.54" from="22931826#1" to="32235541" type="car" departLane="best" departSpeed="max" />
    <trip id="trip_106" depart="4.82" from="90776168#0" to="325030864" type="car" departLane="best" departSpeed="max" />
    <trip id="trip_4665" depart="4.93" from="310832991" to="280422002" type="car" departLane="best" departSpeed="max" />
    <trip id="trip_1105" depart="4.93" from="1346182146" to="146537576" type="car" departLane="best" departSpeed="max" />
    <trip id="trip_6506" depart="5.02" from="21458715#2" to="32235541" type="car" departLane="best" departSpeed="max" />
    <trip id="trip_4666" depart="5.03" from="21458715#2" to="280422002" type="car" departLane="best" departSpeed="max" />
    <trip id="trip_4667" depart="5.53" from="21458715#2" to="-90776168#0" type="car" departLane="best" departSpeed="max" />
    <trip id="trip_4668" depart="5.53" from="21458715#2" to="280422002" type="car" departLane="best" departSpeed="max" />
    <trip id="trip_4669" depart="5.99" from="3707399" to="-239790189" type="car" departLane="best" departSpeed="max" />
    <trip id="trip_4670" depart="6.07" from="22931826#1" to="280422002" type="car" departLane="best" departSpeed="max" />
    <trip id="trip_6507" depart="6.23" from="22931826#1" to="-555770913" type="car" departLane="best" departSpeed="max" />
    <trip id="trip_651" depart="6.25" from="1346182146" to="428922462" type="car" departLane="best" departSpeed="max" />
    <trip id="trip_96" depart="6.38" from="1346182146" to="-37483196#0" type="car" departLane="best" departSpeed="max" />
    <trip id="trip_7200" depart="6.67" from="310832991" to="-381493208#0" type="car" departLane="best" departSpeed="max" />
    <trip id="trip_4671" depart="6.70" from="3707399" to="-90776168#0" type="car" departLane="best" departSpeed="max" />
    <trip id="trip_6508" depart="7.54" from="3707399" to="34916816#4" type="car" departLane="best" departSpeed="max" />
    <trip id="trip_1930" depart="7.73" from="545778341#1" to="428922462" type="car" departLane="best" departSpeed="max" />
    <trip id="trip_6509" depart="7.94" from="21458715#2" to="-555770913" type="car" departLane="best" departSpeed="max" />
    <trip id="trip_4015" depart="8.39" from="289220241" to="-239790189" type="car" departLane="best" departSpeed="max" />
    <trip id="trip_1106" depart="8.48" from="1346182146" to="30819906" type="car" departLane="best" departSpeed="max" />
    <trip id="trip_4016" depart="8.53" from="289220241" to="280422002" type="car" departLane="best" departSpeed="max" />
    <trip id="trip_4672" depart="8.84" from="310832991" to="280422002" type="car" departLane="best" departSpeed="max" />
    <trip id="trip_4673" depart="8.95" from="-30819906" to="280422002" type="car" departLane="best" departSpeed="max" />
    <trip id="trip_2823" depart="9.28" from="144558389" to="32235541" type="car" departLane="best" departSpeed="max" />
    <trip id="trip_2314" depart="9.29" from="4274287" to="30819906" type="car" departLane="best" departSpeed="max" />
    <trip id="trip_652" depart="9.35" from="1346182146" to="75124773#2" type="car" departLane="best" departSpeed="max" />
    <trip id="trip_4674" depart="9.52" from="310832991" to="280422002" type="car" departLane="best" departSpeed="max" />
    <trip id="trip_1344" depart="9.52" from="-32235541" to="280422002" type="car" departLane="best" departSpeed="max" />
    <trip id="trip_6510" depart="9.59" from="-30819906" to="-555770913" type="car" departLane="best" departSpeed="max" />
    <trip id="trip_107" depart="9.98" from="1346182146" to="325030864" type="car" departLane="best" departSpeed="max" />
    <trip id="trip_4675" depart="10.03" from="310832991" to="280422002" type="car" departLane="best" departSpeed="max" />
    <trip id="trip_108" depart="10.61" from="1346182146" to="325030864" type="car" departLane="best" departSpeed="max" />
    <trip id="trip_1666" depart="11.04" from="-34916816#4" to="276604355" type="car" departLane="best" departSpeed="max" />
    <trip id="trip_1846" depart="11.43" from="545778341#1" to="325030864" type="car" departLane="best" departSpeed="max" />
    <trip id="trip_4676" depart="11.46" from="22931826#1" to="-90776168#0" type="car" departLane="best" departSpeed="max" />
    <trip id="trip_0" depart="11.70" from="1346182146" to="34916816#4" type="car" departLane="best" departSpeed="max" />
    <trip id="trip_6511" depart="11.81" from="21458715#2" to="-555770913" type="car" departLane="best" departSpeed="max" />
    <trip id="trip_653" depart="11.90" from="1346182146" to="428922462" type="car" departLane="best" departSpeed="max" />
    <trip id="trip_3280" depart="12.00" from="144558389" to="4055538#4" type="car" departLane="best" departSpeed="max" />
    <trip id="trip_4017" depart="12.20" from="-75124773#2" to="280422002" type="car" departLane="best" departSpeed="max" />
    <trip id="trip_6512" depart="12.32" from="-30819906" to="32235541" type="car" departLane="best" departSpeed="max" />
    <trip id="trip_6513" depart="12.55" from="21458715#2" to="-555770913" type="car" departLane="best" departSpeed="max" />
    <trip id="trip_4677" depart="12.75" from="310832991" to="-239790189" type="car" departLane="best" departSpeed="max" />
    <trip id="trip_1345" depart="12.95" from="-34916816#4" to="280422002" type="car" departLane="best" departSpeed="max" />
    <trip id="trip_1442" depart="12.99" from="-32235541" to="325030864" type="car" departLane="best" departSpeed="max" />
    <trip id="trip_6514" depart="13.04" from="3707399" to="-555770913" type="car" departLane="best" departSpeed="max" />
    <trip id="trip_3895" depart="13.06" from="-519348421" to="30819906" type="car" departLane="best" departSpeed="max" />
    <trip id="trip_4678" depart="13.39" from="-30819906" to="280422002" type="car" departLane="best" departSpeed="max" />
    <trip id="trip_88" depart="14.08" from="1346182146" to="-545778341#1" type="car" departLane="best" departSpeed="max" />
    <trip id="trip_2315" depart="14.22" from="4274287" to="276604355" type="car" departLane="best" departSpeed="max" />
    <trip id="trip_3281" depart="14.35" from="-519348421" to="895154059" type="car" departLane="best" departSpeed="max" />
    <trip id="trip_4679" depart="14.61" from="-30819906" to="280422002" type="car" departLane="best" departSpeed="max" />
    <trip id="trip_1443" depart="14.97" from="555770913" to="325030864" type="car" departLane="best" departSpeed="max" />
    <trip id="trip_2316" depart="15.18" from="4274287" to="146537576" type="car" departLane="best" departSpeed="max" />
    <trip id="trip_4618" depart="15.28" from="-75124773#2" to="126760930#3" type="car" departLane="best" departSpeed="max" />
    <trip id="trip_4680" depart="15.74" from="22931826#1" to="-90776168#0" type="car" departLane="best" departSpeed="max" />
    <trip id="trip_6515" depart="15.90" from="310832991" to="32235541" type="car" departLane="best" departSpeed="max" />
    <trip id="trip_1444" depart="16.07" from="-32235541" to="325030864" type="car" departLane="best" departSpeed="max" />
    <trip id="trip_1445" depart="16.44" from="-34916816#4" to="325030864" type="car" departLane="best" departSpeed="max" />
    <trip id="trip_654" depart="16.45" from="1346182146" to="428922462" type="car" departLane="best" departSpeed="max" />
    <trip id="trip_6516" depart="16.97" from="21458715#2" to="32235541" type="car" departLane="best" departSpeed="max" />
    <trip id="trip_655" depart="17.01" from="1346182146" to="75124773#2" type="car" departLane="best" departSpeed="max" />
    <trip id="trip_109" depart="18.27" from="1346182146" to="325030864" type="car" departLane="best" departSpeed="max" />
    <trip id="trip_6517" depart="18.39" from="-30819906" to="34916816#4" type="car" departLane="best" departSpeed="max" />
    <trip id="trip_6518" depart="18.41" from="21458715#2" to="34916816#4" type="car" departLane="best" departSpeed="max" />
    <trip id="trip_6519" depart="18.51" from="21458715#2" to="-555770913" type="car" departLane="best" departSpeed="max" />
    <trip id="trip_4413" depart="18.53" from="289220241" to="34916816#4" type="car" departLane="best" departSpeed="max" />
    <trip id="trip_2175" depart="18.58" from="37483196#0" to="-381493208#0" type="car" departLane="best" departSpeed="max" />
    <trip id="trip_656" depart="18.99" from="1346182146" to="75124773#2" type="car" departLane="best" departSpeed="max" />
    <trip id="trip_4681" depart="19.21" from="21458715#2" to="280422002" type="car" departLane="best" departSpeed="max" />
    <trip id="trip_3282" depart="19.84" from="-519348421" to="895154059" type="car" departLane="best" departSpeed="max" />
    <trip id="trip_1667" depart="20.34" from="-32235541" to="126760930#3" type="car" departLane="best" departSpeed="max" />
    <trip id="trip_4682" depart="20.75" from="3707399" to="-239790189" type="car" departLane="best" departSpeed="max" />
    <trip id="trip_657" depart="21.33" from="90776168#0" to="75124773#2" type="car" departLane="best" departSpeed="max" />
    <trip id="trip_4018" depart="22.35" from="289220241" to="-90776168#0" type="car" departLane="best" departSpeed="max" />
    <trip id="trip_2824" depart="24.29" from="144558389" to="32235541" type="car" departLane="best" departSpeed="max" />
    <trip id="trip_3212" depart="24.41" from="144558389" to="-381493208#0" type="car" departLane="best" departSpeed="max" />
    <trip id="trip_2825" depart="24.59" from="144558389" to="34916816#4" type="car" departLane="best" departSpeed="max" />
    <trip id="trip_7625" depart="24.73" from="21458715#2" to="325030864" type="car" departLane="best" departSpeed="max" />
    <trip id="trip_4683" depart="24.77" from="22931826#1" to="280422002" type="car" departLane="best" departSpeed="max" />
    <trip id="trip_1107" depart="25.34" from="1346182146" to="276604355" type="car" departLane="best" departSpeed="max" />
    <trip id="trip_110" depart="25.47" from="1346182146" to="325030864" type="car" departLane="best" departSpeed="max" />
    <trip id="trip_6520" depart="26.51" from="21458715#2" to="-555770913" type="car" departLane="best" departSpeed="max" />
    <trip id="trip_7626" depart="26.59" from="22931826#1" to="217404013" type="car" departLane="best" departSpeed="max" />
    <trip id="trip_4684" depart="26.70" from="21458715#2" to="280422002" type="car" departLane="best" departSpeed="max" />
    <trip id="trip_3283" depart="26.82" from="144558389" to="-37483196#0" type="car" departLane="best" departSpeed="max" />
    <trip id="trip_3896" depart="26.89" from="-519348421" to="152407669#3" type="car" departLane="best" departSpeed="max" />
    <trip id="trip_3284" depart="27.33" from="144558389" to="4055538#4" type="car" departLane="best" departSpeed="max" />
    <trip id="trip_658" depart="27.60" from="1346182146" to="428922462" type="car" departLane="best" departSpeed="max" />
    <trip id="trip_3285" depart="27.92" from="144558389" to="895154059" type="car" departLane="best" departSpeed="max" />
    <trip id="trip_3213" depart="28.07" from="144558389" to="-381493208#0" type="car" departLane="best" departSpeed="max" />
    <trip id="trip_4019" depart="28.07" from="289220241" to="280422002" type="car" departLane="best" departSpeed="max" />
    <trip id="trip_1847" depart="28.13" from="381493208#0" to="325030864" type="car" departLane="best" departSpeed="max" />
    <trip id="trip_4685" depart="28.14" from="21458715#2" to="280422002" type="car" departLane="best" departSpeed="max" />
    <trip id="trip_659" depart="28.16" from="1346182146" to="428922462" type="car" departLane="best" departSpeed="max" />
    <trip id="trip_1755" depart="28.27" from="545778341#1" to="280422002" type="car" departLane="best" departSpeed="max" />
    <trip id="trip_2317" depart="28.57" from="-393288753#1" to="152407669#3" type="car" departLane="best" departSpeed="max" />
    <trip id="trip_6521" depart="28.70" from="3707399" to="32235541" type="car" departLane="best" departSpeed="max" />
    <trip id="trip_4559" depart="28.87" from="289220241" to="325030864" type="car" departLane="best" departSpeed="max" />
    <trip id="trip_4686" depart="29.10" from="-30819906" to="280422002" type="car" departLane="best" departSpeed="max" />
    <trip id="trip_7201" depart="29.31" from="310832991" to="-545778341#1" type="car" departLane="best" departSpeed="max" />
    <trip id="trip_4560" depart="29.48" from="289220241" to="217404013" type="car" departLane="best" departSpeed="max" />
    <trip id="trip_2687" depart="29.93" from="-519348421" to="280422002" type="car" departLane="best" departSpeed="max" />
    <trip id="trip_4687" depart="30.27" from="3707399" to="280422002" type="car" departLane="best" departSpeed="max" />
    <trip id="trip_4688" depart="30.32" from="310832991" to="-90776168#0" type="car" departLane="best" departSpeed="max" />
    <trip id="trip_4689" depart="30.59" from="22931826#1" to="280422002" type="car" departLane="best" departSpeed="max" />
    <trip id="trip_660" depart="30.86" from="1346182146" to="428922462" type="car" departLane="best" departSpeed="max" />
    <trip id="trip_4690" depart="31.50" from="3707399" to="280422002" type="car" departLane="best" departSpeed="max" />
    <trip id="trip_4691" depart="32.34" from="-30819906" to="280422002" type="car" departLane="best" departSpeed="max" />
    <trip id="trip_4692" depart="32.50" from="22931826#1" to="-90776168#0" type="car" departLane="best" departSpeed="max" />
    <trip id="trip_2275" depart="32.64" from="4274287" to="75124773#2" type="car" departLane="best" departSpeed="max" />
    <trip id="trip_6522" depart="32.92" from="21458715#2" to="34916816#4" type="car" departLane="best" departSpeed="max" />
    <trip id="trip_1446" depart="33.70" from="-34916816#4" to="217404013" type="car" departLane="best" departSpeed="max" />
    <trip id="trip_2318" depart="34.15" from="37483196#0" to="152407669#3" type="car" departLane="best" departSpeed="max" />
    <trip id="trip_111" depart="34.89" from="1346182146" to="217404013" type="car" departLane="best" departSpeed="max" />
    <trip id="trip_1447" depart="34.91" from="-32235541" to="325030864" type="car" departLane="best" departSpeed="max" />
    <trip id="trip_1108" depart="35.54" from="239790189" to="126760930#3" type="car" departLane="best" departSpeed="max" />
    <trip id="trip_2319" depart="35.61" from="-393288753#1" to="30819906" type="car" departLane="best" departSpeed="max" />
    <trip id="trip_2115" depart="35.84" from="4274287" to="32235541" type="car" departLane="best" departSpeed="max" />
    <trip id="trip_6523" depart="35.86" from="22931826#1" to="-555770913" type="car" departLane="best" departSpeed="max" />
    <trip id="trip_112" depart="36.68" from="1346182146" to="325030864" type="car" departLane="best" departSpeed="max" />
    <trip id="trip_4020" depart="36.72" from="289220241" to="280422002" type="car" departLane="best" departSpeed="max" />
    <trip id="trip_7627" depart="36.89" from="21458715#2" to="325030864" type="car" departLane="best" departSpeed="max" />
    <trip id="trip_4693" depart="37.24" from="21458715#2" to="280422002" type="car" departLane="best" departSpeed="max" />
    <trip id="trip_2826" depart="37.29" from="144558389" to="-555770913" type="car" departLane="best" departSpeed="max" />
    <trip id="trip_4561" depart="37.29" from="289220241" to="325030864" type="car" departLane="best" departSpeed="max" />
    <trip id="trip_3214" depart="37.31" from="144558389" to="130897589" type="car" departLane="best" departSpeed="max" />
    <trip id="trip_4021" depart="37.39" from="-75124773#2" to="280422002" type="car" departLane="best" departSpeed="max" />
    <trip id="trip_2827" depart="37.89" from="144558389" to="-555770913" type="car" departLane="best" departSpeed="max" />
    <trip id="trip_2116" depart="37.93" from="4274287" to="32235541" type="car" departLane="best" departSpeed="max" />
    <trip id="trip_2828" depart="38.07" from="144558389" to="-555770913" type="car" departLane="best" departSpeed="max" />
    <trip id="trip_3286" depart="38.60" from="144558389" to="895154059" type="car" departLane="best" departSpeed="max" />
    <trip id="trip_6524" depart="39.06" from="3707399" to="34916816#4" type="car" departLane="best" departSpeed="max" />
    <trip id="trip_2829" depart="39.37" from="144558389" to="-555770913" type="car" departLane="best" departSpeed="max" />
    <trip id="trip_7628" depart="40.63" from="22931826#1" to="325030864" type="car" departLane="best" departSpeed="max" />
    <trip id="trip_6525" depart="40.74" from="-30819906" to="32235541" type="car" departLane="best" departSpeed="max" />
    <trip id="trip_4694" depart="40.92" from="-30819906" to="280422002" type="car" departLane="best" departSpeed="max" />
    <trip id="trip_4695" depart="40.92" from="310832991" to="280422002" type="car" departLane="best" departSpeed="max" />
    <trip id="trip_661" depart="40.92" from="1346182146" to="428922462" type="car" departLane="best" departSpeed="max" />
    <trip id="trip_4696" depart="41.11" from="3707399" to="280422002" type="car" departLane="best" departSpeed="max" />
    <trip id="trip_4697" depart="41.25" from="310832991" to="280422002" type="car" departLane="best" departSpeed="max" />
    <trip id="trip_4698" depart="41.33" from="310832991" to="280422002" type="car" departLane="best" departSpeed="max" />
    <trip id="trip_1432" depart="41.58" from="-34916816#4" to="4055538#4" type="car" departLane="best" departSpeed="max" />
    <trip id="trip_2320" depart="41.87" from="-393288753#1" to="146537576" type="car" departLane="best" departSpeed="max" />
    <trip id="trip_4699" depart="41.88" from="22931826#1" to="280422002" type="car" departLane="best" departSpeed="max" />
    <trip id="trip_6526" depart="42.11" from="22931826#1" to="32235541" type="car" departLane="best" departSpeed="max" />
    <trip id="trip_7283" depart="42.13" from="-30819906" to="895154059" type="car" departLane="best" departSpeed="max" />
    <trip id="trip_113" depart="42.60" from="90776168#0" to="325030864" type="car" departLane="best" departSpeed="max" />
    <trip id="trip_4022" depart="42.90" from="-75124773#2" to="280422002" type="car" departLane="best" departSpeed="max" />
    <trip id="trip_7284" depart="43.14" from="21458715#2" to="895154059" type="car" departLane="best" departSpeed="max" />
    <trip id="trip_1668" depart="43.18" from="-32235541" to="30819906" type="car" departLane="best" departSpeed="max" />
    <trip id="trip_2830" depart="43.20" from="144558389" to="32235541" type="car" departLane="best" departSpeed="max" />
    <trip id="trip_4700" depart="43.25" from="-30819906" to="280422002" type="car" departLane="best" departSpeed="max" />
    <trip id="trip_7696" depart="43.27" from="-30819906" to="428922462" type="car" departLane="best" departSpeed="max" />
    <trip id="trip_4701" depart="43.57" from="3707399" to="280422002" type="car" departLane="best" departSpeed="max" />
    <trip id="trip_4702" depart="43.61" from="310832991" to="280422002" type="car" departLane="best" departSpeed="max" />
    <trip id="trip_4530" depart="43.70" from="-75124773#2" to="895154059" type="car" departLane="best" departSpeed="max" />
    <trip id="trip_114" depart="43.97" from="1346182146" to="325030864" type="car" departLane="best" departSpeed="max" />
    <trip id="trip_7202" depart="44.10" from="3707399" to="-381493208#0" type="car" departLane="best" departSpeed="max" />
    <trip id="trip_662" depart="44.21" from="239790189" to="75124773#2" type="car" departLane="best" departSpeed="max" />
    <trip id="trip_115" depart="44.62" from="1346182146" to="325030864" type="car" departLane="best" departSpeed="max" />
    <trip id="trip_1669" depart="44.88" from="-32235541" to="276604355" type="car" departLane="best" departSpeed="max" />
    <trip id="trip_7629" depart="44.89" from="3707399" to="325030864" type="car" departLane="best" departSpeed="max" />
    <trip id="trip_1" depart="45.02" from="1346182146" to="-555770913" type="car" departLane="best" departSpeed="max" />
    <trip id="trip_6527" depart="45.28" from="310832991" to="-555770913" type="car" departLane="best" departSpeed="max" />
    <trip id="trip_2321" depart="45.67" from="4274287" to="146537576" type="car" departLane="best" departSpeed="max" />
    <trip id="trip_6528" depart="45.72" from="22931826#1" to="34916816#4" type="car" departLane="best" departSpeed="max" />
    <trip id="trip_4703" depart="45.87" from="21458715#2" to="280422002" type="car" departLane="best" departSpeed="max" />
    <trip id="trip_3287" depart="45.96" from="144558389" to="895154059" type="car" departLane="best" departSpeed="max" />
    <trip id="trip_4704" depart="46.19" from="-30819906" to="280422002" type="car" departLane="best" departSpeed="max" />
    <trip id="trip_116" depart="46.22" from="239790189" to="217404013" type="car" departLane="best" departSpeed="max" />
    <trip id="trip_3288" depart="46.40" from="144558389" to="895154059" type="car" departLane="best" departSpeed="max" />
    <trip id="trip_7285" depart="46.49" from="310832991" to="4055538#4" type="car" departLane="best" departSpeed="max" />
    <trip id="trip_3289" depart="46.79" from="144558389" to="393288753#0" type="car" departLane="best" departSpeed="max" />
    <trip id="trip_4705" depart="47.19" from="310832991" to="280422002" type="car" departLane="best" departSpeed="max" />
    <trip id="trip_3880" depart="47.20" from="144558389" to="75124773#2" type="car" departLane="best" departSpeed="max" />
    <trip id="trip_4706" depart="47.25" from="310832991" to="-239790189" type="car" departLane="best" departSpeed="max" />
    <trip id="trip_663" depart="47.27" from="1346182146" to="428922462" type="car" departLane="best" departSpeed="max" />
    <trip id="trip_2" depart="47.76" from="1346182146" to="-555770913" type="car" departLane="best" departSpeed="max" />
    <trip id="trip_117" depart="48.54" from="1346182146" to="325030864" type="car" departLane="best" departSpeed="max" />
    <trip id="trip_118" depart="48.78" from="1346182146" to="325030864" type="car" departLane="best" departSpeed="max" />
    <trip id="trip_2322" depart="48.91" from="4274287" to="146537576" type="car" departLane="best" departSpeed="max" />
    <trip id="trip_4707" depart="49.09" from="22931826#1" to="280422002" type="car" departLane="best" departSpeed="max" />
    <trip id="trip_6529" depart="49.17" from="310832991" to="34916816#4" type="car" departLane="best" departSpeed="max" />
    <trip id="trip_4708" depart="49.18" from="-30819906" to="280422002" type="car" departLane="best" departSpeed="max" />
    <trip id="trip_4414" depart="49.19" from="289220241" to="34916816#4" type="car" departLane="best" departSpeed="max" />
    <trip id="trip_3290" depart="49.23" from="144558389" to="393288753#0" type="car" departLane="best" departSpeed="max" />
    <trip id="trip_6530" depart="49.48" from="22931826#1" to="-555770913" type="car" departLane="best" departSpeed="max" />
    <trip id="trip_6531" depart="49.72" from="21458715#2" to="32235541" type="car" departLane="best" departSpeed="max" />
    <trip id="trip_4023" depart="49.78" from="289220241" to="280422002" type="car" departLane="best" departSpeed="max" />
    <trip id="trip_2323" depart="50.20" from="4274287" to="126760930#3" type="car" departLane="best" departSpeed="max" />
    <trip id="trip_3291" depart="50.35" from="144558389" to="895154059" type="car" departLane="best" departSpeed="max" />
    <trip id="trip_2058" depart="50.66" from="37483196#0" to="-239790189" type="car" departLane="best" departSpeed="max" />
    <trip id="trip_1448" depart="51.43" from="-32235541" to="325030864" type="car" departLane="best" departSpeed="max" />
    <trip id="trip_7286" depart="51.61" from="310832991" to="393288753#0" type="car" departLane="best" departSpeed="max" />
    <trip id="trip_119" depart="51.66" from="1346182146" to="325030864" type="car" departLane="best" departSpeed="max" />
    <trip id="trip_1109" depart="51.87" from="1346182146" to="126760930#3" type="car" departLane="best" departSpeed="max" />
    <trip id="trip_120" depart="52.24" from="1346182146" to="325030864" type="car" departLane="best" departSpeed="max" />
    <trip id="trip_1670" depart="52.41" from="-32235541" to="146537576" type="car" departLane="best" departSpeed="max" />
    <trip id="trip_4709" depart="52.48" from="22931826#1" to="-90776168#0" type="car" departLane="best" departSpeed="max" />
    <trip id="trip_664" depart="52.55" from="1346182146" to="428922462" type="car" departLane="best" departSpeed="max" />
    <trip id="trip_4710" depart="52.92" from="22931826#1" to="280422002" type="car" departLane="best" departSpeed="max" />
    <trip id="trip_6532" depart="53.26" from="21458715#2" to="34916816#4" type="car" departLane="best" departSpeed="max" />
    <trip id="trip_6533" depart="53.32" from="22931826#1" to="34916816#4" type="car" departLane="best" departSpeed="max" />
    <trip id="trip_665" depart="53.33" from="239790189" to="428922462" type="car" departLane="best" departSpeed="max" />
    <trip id="trip_3" depart="53.63" from="1346182146" to="-555770913" type="car" departLane="best" departSpeed="max" />
    <trip id="trip_4711" depart="53.89" from="-30819906" to="280422002" type="car" departLane="best" departSpeed="max" />
    <trip id="trip_3292" depart="53.96" from="144558389" to="393288753#0" type="car" departLane="best" departSpeed="max" />
    <trip id="trip_6534" depart="54.38" from="22931826#1" to="32235541" type="car" departLane="best" departSpeed="max" />
    <trip id="trip_4024" depart="54.62" from="289220241" to="280422002" type="car" departLane="best" departSpeed="max" />
    <trip id="trip_4712" depart="54.63" from="310832991" to="280422002" type="car" departLane="best" departSpeed="max" />
    <trip id="trip_4619" depart="55.07" from="289220241" to="276604355" type="car" departLane="best" departSpeed="max" />
    <trip id="trip_4473" depart="55.65" from="-75124773#2" to="130897589" type="car" departLane="best" departSpeed="max" />
    <trip id="trip_2324" depart="55.71" from="37483196#0" to="30819906" type="car" departLane="best" departSpeed="max" />
    <trip id="trip_4415" depart="55.87" from="289220241" to="32235541" type="car" departLane="best" departSpeed="max" />
    <trip id="trip_1671" depart="56.11" from="-34916816#4" to="146537576" type="car" departLane="best" departSpeed="max" />
    <trip id="trip_4713" depart="56.48" from="310832991" to="280422002" type="car" departLane="best" departSpeed="max" />
    <trip id="trip_4714" depart="56.68" from="-30819906" to="280422002" type="car" departLane="best" departSpeed="max" />
    <trip id="trip_4416" depart="56.73" from="289220241" to="-555770913" type="car" departLane="best" departSpeed="max" />
    <trip id="trip_2059" depart="56.88" from="-393288753#1" to="280422002" type="car" departLane="best" departSpeed="max" />
    <trip id="trip_1672" depart="56.93" from="555770913" to="146537576" type="car" departLane="best" departSpeed="max" />
    <trip id="trip_2276" depart="57.55" from="4274287" to="75124773#2" type="car" departLane="best" departSpeed="max" />