<?xml version='1.0' encoding='utf-8'?>
<routes>
    <vType id="car" accel="2.6" decel="4.5" sigma="0.5" length="5.0" maxSpeed="33.33" />
    <trip id="trip_1360" depart="0.52" from="555770913" to="325030864" type="car" departLane="best" departSpeed="max" />
    <trip id="trip_0" depart="0.73" from="1346182146" to="146537576" type="car" departLane="best" departSpeed="max" />
    <trip id="trip_1" depart="1.03" from="1346182146" to="146537576" type="car" departLane="best" departSpeed="max" />
    <trip id="trip_1660" depart="2.85" from="4274287" to="152407669#3" type="car" departLane="best" departSpeed="max" />
    <trip id="trip_2" depart="3.04" from="1346182146" to="152407669#3" type="car" departLane="best" departSpeed="max" />
    <trip id="trip_3" depart="6.38" from="1346182146" to="30819906" type="car" departLane="best" departSpeed="max" />
    <trip id="trip_1661" depart="7.40" from="4274287" to="152407669#3" type="car" departLane="best" departSpeed="max" />
    <trip id="trip_1890" depart="9.14" from="144558389" to="-90776168#0" type="car" departLane="best" departSpeed="max" />
    <trip id="trip_740" depart="9.35" from="239790189" to="325030864" type="car" departLane="best" departSpeed="max" />
    <trip id="trip_420" depart="9.45" from="310832991" to="-90776168#0" type="car" departLane="best" departSpeed="max" />
    <trip id="trip_2200" depart="10.45" from="-75124773#2" to="130897589" type="car" departLane="best" departSpeed="max" />
    <trip id="trip_1662" depart="11.04" from="4274287" to="152407669#3" type="car" departLane="best" departSpeed="max" />
    <trip id="trip_4" depart="11.70" from="1346182146" to="146537576" type="car" departLane="best" departSpeed="max" />
    <trip id="trip_5" depart="14.08" from="1346182146" to="126760930#3" type="car" departLane="best" departSpeed="max" />
    <trip id="trip_1570" depart="15.00" from="-130897589" to="217404013" type="car" departLane="best" departSpeed="max" />
    <trip id="trip_1060" depart="15.23" from="1346182146" to="4055538#4" type="car" departLane="best" departSpeed="max" />
    <trip id="trip_1180" depart="15.85" from="-34916816#4" to="276604355" type="car" departLane="best" departSpeed="max" />
    <trip id="trip_1061" depart="16.02" from="1346182146" to="895154059" type="car" departLane="best" departSpeed="max" />
    <trip id="trip_1460" depart="16.07" from="545778341#1" to="126760930#3" type="car" departLane="best" departSpeed="max" />
    <trip id="trip_6" depart="17.41" from="1346182146" to="276604355" type="car" departLane="best" departSpeed="max" />
    <trip id="trip_1361" depart="17.50" from="555770913" to="325030864" type="car" departLane="best" departSpeed="max" />
    <trip id="trip_741" depart="18.99" from="1346182146" to="325030864" type="car" departLane="best" departSpeed="max" />
    <trip id="trip_1663" depart="20.34" from="-4055538#4" to="152407669#3" type="car" departLane="best" departSpeed="max" />
    <trip id="trip_7" depart="20.67" from="1346182146" to="30819906" type="car" departLane="best" departSpeed="max" />
    <trip id="trip_1790" depart="21.35" from="-4055538#4" to="325030864" type="car" departLane="best" departSpeed="max" />
    <trip id="trip_920" depart="21.52" from="1346182146" to="428922462" type="car" departLane="best" departSpeed="max" />
    <trip id="trip_1791" depart="21.53" from="-4055538#4" to="325030864" type="car" departLane="best" departSpeed="max" />
    <trip id="trip_1891" depart="22.36" from="144558389" to="-90776168#0" type="car" departLane="best" departSpeed="max" />
    <trip id="trip_1181" depart="23.34" from="-32235541" to="152407669#3" type="car" departLane="best" departSpeed="max" />
    <trip id="trip_2020" depart="25.17" from="144558389" to="34916816#4" type="car" departLane="best" departSpeed="max" />
    <trip id="trip_421" depart="29.24" from="-30819906" to="280422002" type="car" departLane="best" departSpeed="max" />
    <trip id="trip_422" depart="29.58" from="-30819906" to="280422002" type="car" departLane="best" departSpeed="max" />
    <trip id="trip_2260" depart="32.64" from="22931826#1" to="895154059" type="car" departLane="best" departSpeed="max" />
    <trip id="trip_1571" depart="33.10" from="381493208#0" to="325030864" type="car" departLane="best" departSpeed="max" />
    <trip id="trip_2090" depart="33.49" from="-75124773#2" to="280422002" type="car" departLane="best" departSpeed="max" />
    <trip id="trip_2350" depart="34.15" from="310832991" to="-555770913" type="car" departLane="best" departSpeed="max" />
    <trip id="trip_1572" depart="34.34" from="545778341#1" to="325030864" type="car" departLane="best" departSpeed="max" />
    <trip id="trip_1461" depart="34.91" from="381493208#0" to="30819906" type="car" departLane="best" departSpeed="max" />
    <trip id="trip_8" depart="35.06" from="1346182146" to="276604355" type="car" departLane="best" departSpeed="max" />
    <trip id="trip_2091" depart="35.84" from="-75124773#2" to="280422002" type="car" departLane="best" departSpeed="max" />
    <trip id="trip_1062" depart="36.09" from="90776168#0" to="895154059" type="car" departLane="best" departSpeed="max" />
    <trip id="trip_2261" depart="37.45" from="3707399" to="895154059" type="car" departLane="best" departSpeed="max" />
    <trip id="trip_1573" depart="38.68" from="545778341#1" to="217404013" type="car" departLane="best" departSpeed="max" />
    <trip id="trip_921" depart="39.24" from="239790189" to="75124773#2" type="car" departLane="best" departSpeed="max" />
    <trip id="trip_1574" depart="40.95" from="-130897589" to="325030864" type="car" departLane="best" departSpeed="max" />
    <trip id="trip_2351" depart="41.87" from="3707399" to="-555770913" type="car" departLane="best" departSpeed="max" />
    <trip id="trip_9" depart="42.60" from="1346182146" to="276604355" type="car" departLane="best" departSpeed="max" />
    <trip id="trip_1792" depart="42.66" from="-4055538#4" to="325030864" type="car" departLane="best" departSpeed="max" />
    <trip id="trip_1664" depart="43.18" from="-393288753#1" to="126760930#3" type="car" departLane="best" departSpeed="max" />
    <trip id="trip_1892" depart="43.94" from="144558389" to="-239790189" type="car" departLane="best" departSpeed="max" />
    <trip id="trip_10" depart="43.97" from="1346182146" to="276604355" type="car" departLane="best" departSpeed="max" />
    <trip id="trip_742" depart="44.21" from="1346182146" to="325030864" type="car" departLane="best" departSpeed="max" />
    <trip id="trip_11" depart="44.62" from="1346182146" to="276604355" type="car" departLane="best" departSpeed="max" />
    <trip id="trip_1665" depart="44.88" from="37483196#0" to="30819906" type="car" departLane="best" departSpeed="max" />
    <trip id="trip_12" depart="45.02" from="239790189" to="146537576" type="car" departLane="best" departSpeed="max" />
    <trip id="trip_1182" depart="45.49" from="555770913" to="152407669#3" type="car" departLane="best" departSpeed="max" />
    <trip id="trip_2201" depart="46.73" from="289220241" to="130897589" type="car" departLane="best" departSpeed="max" />
    <trip id="trip_743" depart="47.27" from="1346182146" to="325030864" type="car" departLane="best" departSpeed="max" />
    <trip id="trip_423" depart="47.31" from="21458715#2" to="280422002" type="car" departLane="best" departSpeed="max" />
    <trip id="trip_13" depart="47.76" from="1346182146" to="126760930#3" type="car" departLane="best" departSpeed="max" />
    <trip id="trip_424" depart="48.01" from="21458715#2" to="-90776168#0" type="car" departLane="best" departSpeed="max" />
    <trip id="trip_2352" depart="48.91" from="-30819906" to="-555770913" type="car" departLane="best" departSpeed="max" />
    <trip id="trip_1362" depart="49.23" from="555770913" to="325030864" type="car" departLane="best" departSpeed="max" />
    <trip id="trip_425" depart="50.74" from="3707399" to="-239790189" type="car" departLane="best" departSpeed="max" />
    <trip id="trip_1666" depart="52.41" from="-393288753#1" to="30819906" type="car" departLane="best" departSpeed="max" />
    <trip id="trip_744" depart="52.55" from="1346182146" to="325030864" type="car" departLane="best" departSpeed="max" />
    <trip id="trip_1575" depart="53.04" from="-130897589" to="217404013" type="car" departLane="best" departSpeed="max" />
    <trip id="trip_922" depart="53.07" from="1346182146" to="75124773#2" type="car" departLane="best" departSpeed="max" />
    <trip id="trip_14" depart="53.63" from="239790189" to="126760930#3" type="car" departLane="best" departSpeed="max" />
    <trip id="trip_1063" depart="55.01" from="1346182146" to="895154059" type="car" departLane="best" departSpeed="max" />
    <trip id="trip_923" depart="55.95" from="239790189" to="75124773#2" type="car" departLane="best" departSpeed="max" />
    <trip id="trip_1667" depart="56.11" from="4274287" to="126760930#3" type="car" departLane="best" departSpeed="max" />
    <trip id="trip_1668" depart="56.93" from="-4055538#4" to="152407669#3" type="car" departLane="best" departSpeed="max" />
    <trip id="trip_2262" depart="57.55" from="-30819906" to="-37483196#0" type="car" departLane="best" departSpeed="max" />
    <trip id="trip_15" depart="57.78" from="239790189" to="146537576" type="car" departLane="best" departSpeed="max" />
    <trip id="trip_1183" depart="58.15" from="-32235541" to="276604355" type="car" departLane="best" departSpeed="max" />
    <trip id="trip_1893" depart="58.89" from="144558389" to="280422002" type="car" departLane="best" departSpeed="max" />
    <trip id="trip_1462" depart="60.32" from="381493208#0" to="152407669#3" type="car" departLane="best" departSpeed="max" />
    <trip id="trip_1363" depart="60.50" from="555770913" to="217404013" type="car" departLane="best" departSpeed="max" />
    <trip id="trip_1894" depart="60.52" from="-519348421" to="280422002" type="car" departLane="best" departSpeed="max" />
    <trip id="trip_924" depart="62.37" from="90776168#0" to="428922462" type="car" departLane="best" departSpeed="max" />
    <trip id="trip_426" depart="62.64" from="21458715#2" to="280422002" type="car" departLane="best" departSpeed="max" />
    <trip id="trip_1064" depart="63.57" from="1346182146" to="895154059" type="car" departLane="best" departSpeed="max" />
    <trip id="trip_1364" depart="64.91" from="-32235541" to="217404013" type="car" departLane="best" departSpeed="max" />
    <trip id="trip_2092" depart="66.61" from="289220241" to="280422002" type="car" departLane="best" departSpeed="max" />
    <trip id="trip_427" depart="67.95" from="310832991" to="280422002" type="car" departLane="best" departSpeed="max" />
    <trip id="trip_1895" depart="72.11" from="-519348421" to="280422002" type="car" departLane="best" departSpeed="max" />
    <trip id="trip_925" depart="72.59" from="1346182146" to="75124773#2" type="car" departLane="best" departSpeed="max" />
    <trip id="trip_2021" depart="73.10" from="-519348421" to="34916816#4" type="car" departLane="best" departSpeed="max" />
    <trip id="trip_1793" depart="73.83" from="4274287" to="325030864" type="car" departLane="best" departSpeed="max" />
    <trip id="trip_428" depart="75.43" from="21458715#2" to="280422002" type="car" departLane="best" departSpeed="max" />
    <trip id="trip_1463" depart="75.59" from="-130897589" to="30819906" type="car" departLane="best" departSpeed="max" />
    <trip id="trip_1464" depart="75.93" from="-130897589" to="152407669#3" type="car" departLane="best" departSpeed="max" />
    <trip id="trip_429" depart="76.24" from="310832991" to="280422002" type="car" departLane="best" departSpeed="max" />
    <trip id="trip_2022" depart="76.53" from="144558389" to="32235541" type="car" departLane="best" departSpeed="max" />
    <trip id="trip_926" depart="76.85" from="1346182146" to="75124773#2" type="car" departLane="best" departSpeed="max" />
    <trip id="trip_1576" depart="78.27" from="545778341#1" to="217404013" type="car" departLane="best" departSpeed="max" />
    <trip id="trip_430" depart="78.85" from="3707399" to="280422002" type="car" departLane="best" departSpeed="max" />
    <trip id="trip_745" depart="79.73" from="1346182146" to="325030864" type="car" departLane="best" departSpeed="max" />
    <trip id="trip_431" depart="79.80" from="22931826#1" to="280422002" type="car" departLane="best" departSpeed="max" />
    <trip id="trip_2353" depart="80.97" from="3707399" to="34916816#4" type="car" departLane="best" departSpeed="max" />
    <trip id="trip_1184" depart="82.40" from="555770913" to="276604355" type="car" departLane="best" departSpeed="max" />
    <trip id="trip_16" depart="82.48" from="1346182146" to="152407669#3" type="car" departLane="best" departSpeed="max" />
    <trip id="trip_1669" depart="83.05" from="-393288753#1" to="30819906" type="car" departLane="best" departSpeed="max" />
    <trip id="trip_2263" depart="84.02" from="22931826#1" to="895154059" type="car" departLane="best" departSpeed="max" />
    <trip id="trip_2264" depart="84.69" from="3707399" to="4055538#4" type="car" departLane="best" departSpeed="max" />
    <trip id="trip_17" depart="84.81" from="1346182146" to="146537576" type="car" departLane="best" departSpeed="max" />
    <trip id="trip_2093" depart="85.56" from="289220241" to="-90776168#0" type="car" departLane="best" departSpeed="max" />
    <trip id="trip_432" depart="85.95" from="22931826#1" to="-239790189" type="car" departLane="best" departSpeed="max" />
    <trip id="trip_1185" depart="87.43" from="555770913" to="30819906" type="car" departLane="best" departSpeed="max" />
    <trip id="trip_2354" depart="87.57" from="3707399" to="34916816#4" type="car" departLane="best" departSpeed="max" />
    <trip id="trip_2202" depart="87.63" from="289220241" to="-545778341#1" type="car" departLane="best" departSpeed="max" />
    <trip id="trip_1465" depart="89.34" from="381493208#0" to="30819906" type="car" departLane="best" departSpeed="max" />
    <trip id="trip_18" depart="91.06" from="1346182146" to="126760930#3" type="car" departLane="best" departSpeed="max" />
    <trip id="trip_1186" depart="91.54" from="-32235541" to="30819906" type="car" departLane="best" departSpeed="max" />
    <trip id="trip_2355" depart="95.17" from="3707399" to="-555770913" type="car" departLane="best" departSpeed="max" />
    <trip id="trip_1577" depart="95.55" from="381493208#0" to="325030864" type="car" departLane="best" departSpeed="max" />
    <trip id="trip_433" depart="95.86" from="310832991" to="-239790189" type="car" departLane="best" departSpeed="max" />
    <trip id="trip_1065" depart="97.31" from="1346182146" to="4055538#4" type="car" departLane="best" departSpeed="max" />
    <trip id="trip_1896" depart="98.66" from="144558389" to="280422002" type="car" departLane="best" departSpeed="max" />
    <trip id="trip_2203" depart="99.96" from="289220241" to="-545778341#1" type="car" departLane="best" departSpeed="max" />
    <trip id="trip_927" depart="100.64" from="1346182146" to="75124773#2" type="car" departLane="best" departSpeed="max" />
    <trip id="trip_1466" depart="100.87" from="545778341#1" to="146537576" type="car" departLane="best" departSpeed="max" />
    <trip id="trip_19" depart="102.90" from="1346182146" to="152407669#3" type="car" departLane="best" departSpeed="max" />
    <trip id="trip_20" depart="104.27" from="1346182146" to="152407669#3" type="car" departLane="best" departSpeed="max" />
    <trip id="trip_2356" depart="105.30" from="310832991" to="32235541" type="car" departLane="best" departSpeed="max" />
    <trip id="trip_928" depart="105.46" from="239790189" to="428922462" type="car" departLane="best" departSpeed="max" />
    <trip id="trip_21" depart="105.54" from="1346182146" to="152407669#3" type="car" departLane="best" departSpeed="max" />
    <trip id="trip_2023" depart="106.68" from="144558389" to="32235541" type="car" departLane="best" departSpeed="max" />
    <trip id="trip_1897" depart="107.37" from="144558389" to="-239790189" type="car" departLane="best" departSpeed="max" />
    <trip id="trip_1467" depart="107.60" from="381493208#0" to="146537576" type="car" departLane="best" departSpeed="max" />
    <trip id="trip_929" depart="107.81" from="1346182146" to="428922462" type="car" departLane="best" departSpeed="max" />
    <trip id="trip_1794" depart="108.11" from="37483196#0" to="325030864" type="car" departLane="best" departSpeed="max" />
    <trip id="trip_2357" depart="109.14" from="21458715#2" to="-555770913" type="car" departLane="best" departSpeed="max" />
    <trip id="trip_930" depart="109.76" from="1346182146" to="428922462" type="car" departLane="best" departSpeed="max" />
    <trip id="trip_434" depart="111.37" from="-30819906" to="280422002" type="car" departLane="best" departSpeed="max" />
    <trip id="trip_746" depart="112.61" from="1346182146" to="325030864" type="car" departLane="best" departSpeed="max" />
    <trip id="trip_435" depart="113.58" from="22931826#1" to="280422002" type="car" departLane="best" departSpeed="max" />
    <trip id="trip_747" depart="113.88" from="1346182146" to="325030864" type="car" departLane="best" departSpeed="max" />
    <trip id="trip_1898" depart="114.06" from="144558389" to="280422002" type="car" departLane="best" departSpeed="max" />
    <trip id="trip_2265" depart="114.32" from="21458715#2" to="895154059" type="car" departLane="best" departSpeed="max" />
    <trip id="trip_22" depart="114.35" from="1346182146" to="30819906" type="car" departLane="best" departSpeed="max" />
    <trip id="trip_2266" depart="114.60" from="310832991" to="895154059" type="car" departLane="best" departSpeed="max" />
    <trip id="trip_1066" depart="114.91" from="1346182146" to="-37483196#0" type="car" departLane="best" departSpeed="max" />
    <trip id="trip_2094" depart="115.97" from="289220241" to="280422002" type="car" departLane="best" departSpeed="max" />
    <trip id="trip_931" depart="116.05" from="1346182146" to="75124773#2" type="car" departLane="best" departSpeed="max" />
    <trip id="trip_436" depart="116.89" from="22931826#1" to="280422002" type="car" departLane="best" departSpeed="max" />
    <trip id="trip_437" depart="118.64" from="310832991" to="280422002" type="car" departLane="best" departSpeed="max" />
    <trip id="trip_2024" depart="119.25" from="144558389" to="32235541" type="car" departLane="best" departSpeed="max" />
    <trip id="trip_1899" depart="120.61" from="144558389" to="-90776168#0" type="car" departLane="best" departSpeed="max" />
    <trip id="trip_438" depart="121.02" from="310832991" to="280422002" type="car" departLane="best" departSpeed="max" />
    <trip id="trip_2095" depart="121.09" from="-75124773#2" to="280422002" type="car" departLane="best" departSpeed="max" />
    <trip id="trip_1365" depart="121.60" from="555770913" to="217404013" type="car" departLane="best" departSpeed="max" />
    <trip id="trip_439" depart="121.82" from="21458715#2" to="-90776168#0" type="car" departLane="best" departSpeed="max" />
    <trip id="trip_1187" depart="122.72" from="555770913" to="276604355" type="car" departLane="best" departSpeed="max" />
    <trip id="trip_1366" depart="123.51" from="-32235541" to="325030864" type="car" departLane="best" departSpeed="max" />
    <trip id="trip_23" depart="124.58" from="1346182146" to="146537576" type="car" departLane="best" departSpeed="max" />
    <trip id="trip_24" depart="125.95" from="1346182146" to="30819906" type="car" departLane="best" departSpeed="max" />
    <trip id="trip_1900" depart="127.26" from="144558389" to="280422002" type="car" departLane="best" departSpeed="max" />
    <trip id="trip_2204" depart="127.30" from="289220241" to="130897589" type="car" departLane="best" departSpeed="max" />
    <trip id="trip_25" depart="127.54" from="1346182146" to="126760930#3" type="car" departLane="best" departSpeed="max" />
    <trip id="trip_26" depart="127.79" from="1346182146" to="152407669#3" type="car" departLane="best" departSpeed="max" />
    <trip id="trip_1067" depart="128.19" from="1346182146" to="895154059" type="car" departLane="best" departSpeed="max" />
    <trip id="trip_1468" depart="128.49" from="-130897589" to="126760930#3" type="car" departLane="best" departSpeed="max" />
    <trip id="trip_1367" depart="130.29" from="-34916816#4" to="325030864" type="car" departLane="best" departSpeed="max" />
    <trip id="trip_27" depart="130.58" from="1346182146" to="276604355" type="car" departLane="best" departSpeed="max" />
    <trip id="trip_28" depart="131.09" from="1346182146" to="146537576" type="car" departLane="best" departSpeed="max" />
    <trip id="trip_29" depart="131.87" from="239790189" to="146537576" type="car" departLane="best" departSpeed="max" />
    <trip id="trip_440" depart="132.75" from="310832991" to="-239790189" type="car" departLane="best" departSpeed="max" />
    <trip id="trip_748" depart="133.14" from="1346182146" to="325030864" type="car" departLane="best" departSpeed="max" />
    <trip id="trip_1795" depart="133.19" from="4274287" to="325030864" type="car" departLane="best" departSpeed="max" />
    <trip id="trip_932" depart="134.44" from="1346182146" to="75124773#2" type="car" departLane="best" departSpeed="max" />
    <trip id="trip_933" depart="134.69" from="1346182146" to="428922462" type="car" departLane="best" departSpeed="max" />
    <trip id="trip_441" depart="135.07" from="22931826#1" to="280422002" type="car" departLane="best" departSpeed="max" />
    <trip id="trip_30" depart="135.44" from="1346182146" to="30819906" type="car" departLane="best" departSpeed="max" />
    <trip id="trip_1368" depart="136.85" from="-34916816#4" to="325030864" type="car" departLane="best" departSpeed="max" />
    <trip id="trip_2205" depart="138.30" from="-75124773#2" to="130897589" type="car" departLane="best" departSpeed="max" />
    <trip id="trip_749" depart="138.46" from="90776168#0" to="325030864" type="car" departLane="best" departSpeed="max" />
    <trip id="trip_442" depart="138.90" from="-30819906" to="280422002" type="car" departLane="best" departSpeed="max" />
    <trip id="trip_2025" depart="139.92" from="144558389" to="34916816#4" type="car" departLane="best" departSpeed="max" />
    <trip id="trip_2026" depart="141.49" from="144558389" to="-555770913" type="car" departLane="best" departSpeed="max" />
    <trip id="trip_443" depart="142.07" from="310832991" to="280422002" type="car" departLane="best" departSpeed="max" />
    <trip id="trip_444" depart="142.61" from="21458715#2" to="280422002" type="car" departLane="best" departSpeed="max" />
    <trip id="trip_31" depart="143.63" from="1346182146" to="146537576" type="car" departLane="best" departSpeed="max" />
    <trip id="trip_445" depart="144.12" from="21458715#2" to="280422002" type="car" departLane="best" departSpeed="max" />
    <trip id="trip_32" depart="144.20" from="239790189" to="276604355" type="car" departLane="best" departSpeed="max" />
    <trip id="trip_1901" depart="145.73" from="144558389" to="280422002" type="car" departLane="best" departSpeed="max" />
    <trip id="trip_2206" depart="145.91" from="289220241" to="-545778341#1" type="car" departLane="best" departSpeed="max" />
    <trip id="trip_2358" depart="151.04" from="22931826#1" to="-555770913" type="car" departLane="best" departSpeed="max" />
    <trip id="trip_2096" depart="151.07" from="289220241" to="-90776168#0" type="car" departLane="best" departSpeed="max" />
    <trip id="trip_750" depart="152.46" from="1346182146" to="325030864" type="car" departLane="best" departSpeed="max" />
    <trip id="trip_33" depart="152.63" from="1346182146" to="146537576" type="car" departLane="best" departSpeed="max" />
    <trip id="trip_934" depart="152.82" from="1346182146" to="75124773#2" type="car" departLane="best" departSpeed="max" />
    <trip id="trip_751" depart="152.97" from="1346182146" to="325030864" type="car" departLane="best" departSpeed="max" />
    <trip id="trip_446" depart="154.11" from="22931826#1" to="-239790189" type="car" departLane="best" departSpeed="max" />
    <trip id="trip_34" depart="154.18" from="1346182146" to="146537576" type="car" departLane="best" departSpeed="max" />
    <trip id="trip_447" depart="155.19" from="3707399" to="280422002" type="car" departLane="best" departSpeed="max" />
    <trip id="trip_1902" depart="155.65" from="144558389" to="280422002" type="car" departLane="best" departSpeed="max" />
    <trip id="trip_35" depart="156.49" from="1346182146" to="152407669#3" type="car" departLane="best" departSpeed="max" />
    <trip id="trip_1670" depart="156.74" from="4274287" to="152407669#3" type="car" departLane="best" departSpeed="max" />
    <trip id="trip_448" depart="158.02" from="21458715#2" to="280422002" type="car" departLane="best" departSpeed="max" />
    <trip id="trip_1578" depart="158.03" from="381493208#0" to="325030864" type="car" departLane="best" departSpeed="max" />
    <trip id="trip_2207" depart="160.54" from="289220241" to="130897589" type="car" departLane="best" departSpeed="max" />
    <trip id="trip_1068" depart="160.74" from="1346182146" to="895154059" type="car" departLane="best" departSpeed="max" />
    <trip id="trip_1469" depart="161.06" from="-130897589" to="126760930#3" type="car" departLane="best" departSpeed="max" />
    <trip id="trip_2359" depart="161.33" from="310832991" to="34916816#4" type="car" departLane="best" departSpeed="max" />
    <trip id="trip_1369" depart="162.30" from="555770913" to="325030864" type="car" departLane="best" departSpeed="max" />
    <trip id="trip_2097" depart="162.55" from="289220241" to="280422002" type="car" departLane="best" departSpeed="max" />
    <trip id="trip_1903" depart="163.31" from="144558389" to="-239790189" type="car" departLane="best" departSpeed="max" />
    <trip id="trip_2027" depart="163.40" from="144558389" to="34916816#4" type="car" departLane="best" departSpeed="max" />
    <trip id="trip_36" depart="163.64" from="1346182146" to="30819906" type="car" departLane="best" departSpeed="max" />
    <trip id="trip_935" depart="164.18" from="239790189" to="428922462" type="car" departLane="best" departSpeed="max" />
    <trip id="trip_1470" depart="164.52" from="-130897589" to="126760930#3" type="car" departLane="best" departSpeed="max" />
    <trip id="trip_1796" depart="165.49" from="4274287" to="217404013" type="car" departLane="best" departSpeed="max" />
    <trip id="trip_1188" depart="165.50" from="-34916816#4" to="276604355" type="car" departLane="best" departSpeed="max" />
    <trip id="trip_2098" depart="165.52" from="-75124773#2" to="-90776168#0" type="car" departLane="best" departSpeed="max" />
    <trip id="trip_37" depart="166.14" from="1346182146" to="146537576" type="car" departLane="best" departSpeed="max" />
    <trip id="trip_38" depart="166.94" from="1346182146" to="30819906" type="car" departLane="best" departSpeed="max" />
    <trip id="trip_1370" depart="167.42" from="555770913" to="325030864" type="car" departLane="best" departSpeed="max" />
    <trip id="trip_936" depart="167.45" from="1346182146" to="75124773#2" type="car" departLane="best" departSpeed="max" />
    <trip id="trip_752" depart="167.52" from="1346182146" to="325030864" type="car" departLane="best" departSpeed="max" />
    <trip id="trip_2208" depart="168.44" from="289220241" to="-545778341#1" type="car" departLane="best" departSpeed="max" />
    <trip id="trip_449" depart="170.11" from="21458715#2" to="280422002" type="car" departLane="best" departSpeed="max" />
    <trip id="trip_2099" depart="170.52" from="-75124773#2" to="-90776168#0" type="car" departLane="best" departSpeed="max" />
    <trip id="trip_937" depart="172.04" from="90776168#0" to="75124773#2" type="car" departLane="best" departSpeed="max" />
    <trip id="trip_39" depart="174.09" from="1346182146" to="30819906" type="car" departLane="best" departSpeed="max" />
    <trip id="trip_40" depart="174.48" from="1346182146" to="30819906" type="car" departLane="best" departSpeed="max" />
    <trip id="trip_1069" depart="175.69" from="1346182146" to="895154059" type="car" departLane="best" departSpeed="max" />
    <trip id="trip_1797" depart="175.86" from="-4055538#4" to="325030864" type="car" departLane="best" departSpeed="max" />
    <trip id="trip_1798" depart="176.90" from="4274287" to="325030864" type="car" departLane="best" departSpeed="max" />
    <trip id="trip_41" depart="177.15" from="1346182146" to="126760930#3" type="car" departLane="best" departSpeed="max" />
    <trip id="trip_2028" depart="177.63" from="144558389" to="-555770913" type="car" departLane="best" departSpeed="max" />
    <trip id="trip_2029" depart="178.39" from="144558389" to="32235541" type="car" departLane="best" departSpeed="max" />
    <trip id="trip_2360" depart="178.80" from="22931826#1" to="-555770913" type="car" departLane="best" departSpeed="max" />
    <trip id="trip_1579" depart="179.29" from="545778341#1" to="325030864" type="car" departLane="best" departSpeed="max" />
    <trip id="trip_938" depart="180.24" from="239790189" to="75124773#2" type="car" departLane="best" departSpeed="max" />
    <trip id="trip_2267" depart="181.63" from="-30819906" to="895154059" type="car" departLane="best" departSpeed="max" />
    <trip id="trip_42" depart="181.80" from="1346182146" to="146537576" type="car" departLane="best" departSpeed="max" />
    <trip id="trip_450" depart="182.05" from="21458715#2" to="280422002" type="car" departLane="best" departSpeed="max" />
    <trip id="trip_753" depart="183.15" from="1346182146" to="325030864" type="car" departLane="best" departSpeed="max" />
    <trip id="trip_1471" depart="184.09" from="-130897589" to="152407669#3" type="car" departLane="best" departSpeed="max" />