<?xml version='1.0' encoding='utf-8'?>
<routes xmlns:xsi="http://www.w3.org/2001/XMLSchema-instance" xsi:noNamespaceSchemaLocation="http://sumo.dlr.de/xsd/routes_file.xsd">
    <vType id="car" accel="2.6" decel="4.5" sigma="0.5" length="5.0" maxSpeed="33.33" /><vehicle id="0" depart="0.00" type="car">
        <route edges="280269660 280269662 217304302#0 4629199 4629157#1 4629157#2 280270149 253331659 253331661 280271363 144575132 198359298 198362553 280274001 198366313 280273994 280273997 280342519 253327116 253327117 314271665 1017966875 219404823#0 219404823#1 10893338 326367891 326367890 55706469#1 327462611 198366312 251505085 327462614 327464675 251505081 251505078 327464674 280421285 143575548 182556974 182556969 292625289 292625284 292625286#0 292625286#1 38870393 111792278 38871156#0 38871156#1 209086864#0 209086864#2 209086864#3 27803373#0 27803373#1 27803373#2 27803373#3 1050380532#0 1050380532#1 1050380532#2 1050380532#3 1050380532#4 1050380532#5 890194381 919986341 919986342#2 968525811#1 968525812#1 259398503#0 259398503#1 259398503#2 259398503#3 259398503#5 259398503#6 38871649#1 27803372#0 27803372#1 27803372#2 472265495#0 472265495#2 472265495#3 191474474 368350800#0 368350800#1 368350800#2 27803374#1 27803374#3 27803374#4 1416520297 1382013241 1391055896 48781532#1 123943388#1 1381967173 4270947#1 4270947#2 4270947#3 497862008#0 497862008#1 34003492 97260960#0 97260960#1 97260960#2 97260960#3 97260960#4 97260957 984721575#1 302286499#1 97260964#0 97260964#1 34003493#0 34003493#1 34003493#2 31765701 33690419#1 33690419#2 263118627 455884432 1381960558#1 381485874#1 381485874#2 47270697 984721564 32836634 984721578 497739115#1 497739115#2 1381960144 106940697#0 106940697#1 1381957934 529145394 1149482148" />
    </vehicle>
    <vehicle id="1" depart="2.50" type="car">
        <route edges="-493360262 -493360263 -493360261 -493360265 -519348425#3 -519348425#1 -519348430#0 -493361413 4267817 520069748 -519348437 -32234549 -32234548 -32234551 -372648896 -519348445 -28290973 -101081596 -9933739 -813325361 -25653725 -25653724 -511296353 -519402586 -372647237 -563798644 -372647239 -519366831 -372647240 -101081608 -101081591 -372647241 -372647235 -372647238 -372647236 -372646493 -1376442321 -10564086 -1376442319 -520064176 -519366832 -519366834 -372646205 -519366842 -43309569 -17695086 -280346071 -26652961 -43309571#1 -43309572#1 -4018128 -146291234 -327462623 -327462620 -146291236 58079885 359842296 359842296-AddedOffRampEdge 292604542 58079886 519372139 59057616 519372138 -519372140 -519372141 -519372142#0 -519372143#0 -468856269 4761313 -211493757#1 -211493757#0 4761311 23186028 211493753 211493752 28329045 468856264 4761271#1 4761271#2 -8066897 -8066898 -23185925#0 -575241093 -26162741 -7991005 7988294#0 176939619 176939620#0 176939620#1 176939620#2 176939620#3 176939620#5 176939620#6 176939620#7 176939620#9 176939620#10 176939620#11 176939620#12 176939620#13 176939620#14 176939620#15 176939620#16 176939620#17 176939620#18 176939620#19 176939620#20 176939620#21 1030765626#1 1030765626#2 1030765626#3 4056027#4 4055436#0 4055436#1 4055436#2 4055436#3 4055436#4 4055436#5 4055436#6 4055436#7 4055436#8 4055436#9 33190837#0 33190837#2 33190837#3 33190837#4 33190837#5 33190837#6 1286805290#0 1286805290#1 1086393580#0 1086393580#1 1086393580#2 1286805292 60335557#0 60335557#2 60335557#3 60335557#4 60335557#5 60335557#6 1020605119#0 1020605119#1 60336064#1 60336064#2 60336064#3 60336064#4 60336064#5 60336064#6 60336064#7 575241104 49797457#0 49797457#1 49797457#2 49797457#3 60335648#4 60335648#1 4055631#0" />
    </vehicle>
    <vehicle id="2" depart="5.00" type="car">
        <route edges="34605733 325030862 310375822#1 310375822#2 325033882 251735184 -289220254 289220252#0 -4055622#1 -289220249#1 -217404010#1 -493360269 -493360268 -493360266#3 -493360266#1 -493360266#0 -493360262 -493360263 -493360261 -493360265 -519348425#3 -519348425#1 -519348430#0 -493361413 4267817 520069748 -519348437 27333503 33047674 178246732 222533729 222533730 222533731 875519684 35919130#0 35919130#1 1100701921#0 1100701921#1 1100701920#0 1100701920#1 35919131#0 35919131#1 1100701926#0 35919123#1 1376524061#0 1376524062#0 1376524062#1 35919122#0 35919122#1 1376524063 1376524067 1376524064 1217087823 1217087821 1462108687 1217087829#0 1217087829#1 1217087822 32450322#1 1217087819 1217087818 32450323 290408038#0 290408042#0 290408042#1 290408042#2 290408042#3 290408042#4 290408042#6 121875477 10949106 1189373080#0 179605343#0 179605343#1 179605343#2 1189373077 507594305#0 263058892#0 263058892#1 144691956#1 326372758#0 102489836 326372752 326372754#0 155063469 145307249 253346705 864726197 326372740#0 541607290 145779209#0 145779209#1 541607286 3995418 326360868 149394036 149803004 198362552 280273999 227043239 2413204 280270148 149803000#0 4629199 234874700 234874702#0 854043153 872035145 854043152#0 854043152#1 854043151#0 854043150#0 854043150#1 854043149#0 854043148#1 854043147 149392133#0 149392133#1 149392133#2 1425250947#0 1425250949#0 1425250949#1 37261038#0 37261038#1 1425250952 1425250951#1 1425250953 1425250954 1376221503#0 1376221503#1 -11635292#1 15805655#0 4055337#1 1376223184#0 1376223184#2 36817058#2 313731020#1 313731020#2 150515313#0 150515313#1 292601722#18 150515090 1376223186#0 1376223186#1 313731021#0" />
    </vehicle>
    <vehicle id="3" depart="7.50" type="car">
        <route edges="528977272 868823409 868823410 104869600 1303385764#1 986924153 1380341160 528977273#0 528977273#1 528977273#2 528977273#3 1252920814 868823413 126290418 77721630#0 77721630#1 35200217#1 35200217#2 1376221491 -34882136 1195001359 33920066#0 33920066#1 6065324#1 6065324#2 493367236 4291769#0 4291769#1 493367237 1376221492#0 1376221493#0 493367243 36939781#0 36939781#1 36939781#4 -4055991#2 -4055991#0 -493367241 -34882138#7 -34882138#6 -34882138#5 -34882138#4 -34882138#3 -34882138#1 -4055325#2 -4055325#1 -4055325#0 -36939780#3 -36939780#2 -36939780#1 -36939780#0 -1376302121#3 -1376302121#2 -1148287202#1 -1376490814#3 -1376490814#1 -1376490814#0 -998251644 -1382142057 -1148287203#0 -1149457500#2 -1149457500#1 -1149457500#0 -166630466#5 -166630466#4 -166630466#3 -166630466#2 -166630466#1 -166630466#0 -1381124008 -528972756#1 -528972756#0 -24710106 -166630472#1 -166630472#0 -42420251#1 -42420251#0 -1376439172 -1376439170 -998251645 -998251647#1 -998251647#0 -1191557327#2 -1191557327#1 -1191557327#0 -42420264 -528972753#5 -528972753#3 -528972753#2 -528972753#1 -528972753#0 -1170978857 -42415634#1 -42415634#0 -1376440983 -1376440982 -54358793#1 -54358793#0 -1430351999 -1376440257 -4055424#1 -4055424#0 158078822#0 158078822#1 -1376442319 -520064176 -519366832 -519366834 -372646205 -519366842 -43309569 -17695086 -280346071 -26652961 -43309571#1 -43309572#1 -4018128 -146291234 184734290 -1442250188 1442250175 184734288 327462626 327462628 28784067 55717669 327462624 327462632 10564392 327462613 28784068#0 28784068#1 326367892 3345072 487845692 313844121 253327115 253327118 280342521 280341480 227043214 326360863#0 326360863#1 326360860 253327114 326360859 149795919 144193875 144193881 326360856 326360862 144193877 326360858 57141256 326360857 326360864 144385709#0 144385709#1 143578417 47674015#1 4902054 146643686#0 146643686#1 146643686#2 146643686#3 146643686#5" />
    </vehicle>
    <vehicle id="4" depart="10.00" type="car">
        <route edges="-1313269156#0 -1162853614#6 -1162853614#5 -1162853614#4 -1162853614#3 -1162853614#2 -1162853614#1 -1162853614#0 -714391639#0 -27717143#6 -27717143#4 -27717143#3 -27717143#2 -27717143#1 -52922036#11 -52922036#9 -52922036#8 -52922036#7 -52922036#6 -52922036#5 -52922036#4 -52922036#2 -52922036#1 -613250476#5 -613250476#4 -613250476#3 -613250476#1 -613250476#0 -613250477 -31291985#7 -31291985#6 -31291985#5 -31291985#4 -31291985#3 -31291985#2 -31291985#1 -31291985#0 137395177 543408495 291798677#1 291798677#2 1061052808#0 28972603#1 758810786#0 757457497#1 820118027#0 32848325#1 326372756#0 173160225 173160226 326372749 326372750 326372757#0 155063470 326372753#0 1189373076 267576355#0 263058887#1 263058887#2 263058887#3 263058887#4 1189373079 984721569#0 263058890#1 24048580 540154440#1 32450321#1 32450321#2 32450321#4 32450321#5 942221050#0 942221050#1 13930103#0 13930103#1 180860176 -1217087818 -1217087819 -32450322#1 -1217087822 -1217087829#1 -1217087829#0 -967576986 -1217087821 -1217087823 -1376524064 -1376524067 -1376524063 -35919122#1 -35919122#0 -1376524062#2 -1376524062#0 -1376524061#1 -35919123#2 -1100701926#1 -35919131#1 -35919131#0 -1100701920#1 -1100701920#0 -1100701921#1 -1100701921#0 -26725351 -35919130#0 -875519684 -222533731 -4055543 -222533729 -875519685 -217306746#1 -217306746#0 -1100701924 -1100701923 -1100701925 -217306747 -493361405 -493361406#1 -493361406#0 -1445431912#1 -1445431912#0 -1445431914 -1445431913#2 -1445431915#2 -1445431915#0 -1484487819#2 -1484487819#1 -1484487819#0 -75639266 -1100701919#2 -1100701919#0 -4268404#2 -1163469410#1 -36794489#2 -36794489#0 -1376679704 -1376679705 -34866079 -875519687#0 -37274636 -34549515 -136101305#2 -136101305#1 -136101305#0 -1376681204 -1376681203#4 -1376681203#3 -1376681203#2 -1376681203#1 -1376681203#0 -136101301#2 -136101301#1 -105186594#1 -105186594#0 -125023434 -38933550 -1353997901#0 -4055315 -1353997902 -1353997903 -48180716 -1376402213 -1376402212 -28429303#17 -28429303#16 -28429303#15 -28429303#14 -28429303#13 -28429303#12 -28429303#10 -28429303#9 -28429303#8 -28429303#6 -28429303#5 -28429303#4 -28429303#2 -28429303#1 -28429303#0 -967953227#0 -1349912713#2 -1349912713#1 -1349912713#0 -525033966#3 -525033966#1 -525033966#0 -1349912715#1 -1349912715#0 -1351806509#11 -1351806509#10 -1351806509#9 -1351806509#8 -1351806509#7 -1351806509#6 -1351806509#4 -1351806509#3 -1351806509#2 -1351806509#1 -1351806509#0 -28429008#1 -28429008#0 -28429007#4 -28429007#3 -28429007#2 -28429007#1 -28429007#0 -1163469409 -1163469408 -10635307#9 -10635307#8 -10635307#7 -10635307#6 -10635307#5 -10635307#4 -10635307#3 -10635307#2 -10635307#0 -1009088813 4282842#0 4282842#1 4282842#2 1009088812#0 1009088812#1 975292788#0 975292788#1 975292788#2 34549361#0 34549361#3 34549361#4 34549361#5 34549387#0 34549387#1 34549387#2 81186707#0 81186707#1 23072310#0 23072310#1 23072310#2 23072310#3 23072310#4 1163469407#1" />
    </vehicle>
    <vehicle id="5" depart="12.50" type="car">
        <route edges="-38871649#1 -38871649#0 -259398503#5 -259398503#3 -259398503#2 -259398503#1 -259398503#0 -968525812#1 -968525812#0 -968525811#0 -919986342#0 -890194381 -1050380532#5 -1050380532#4 -1050380532#3 -1050380532#2 -1050380532#1 -1050380532#0 -27803373#3 -27803373#2 -27803373#1 -27803373#0 -209086864#3 -209086864#2 -209086864#0 -38871156#1 -38871156#0 -111792278 38870394 384473491 493682474 292625289 38870400 -10742000 -184627123#1 -184627123#0 -200614326 182556971 327473093 327473095 182556972 143578406 280421998#0 280421998#1 280421998#2 327464676 251505089 251505092 830912806 327462610 251505090 10564392 327462613 28784068#0 28784068#1 326367892 8071474 237841427 864003708#0 145779210#0 145779210#1 326369715 4247380 864003709 326372738 4005946 326372763#0 173160225 173160226 326372749 326372750 326372757#0 155063469 145307249" />
    </vehicle>
    <vehicle id="6" depart="15.00" type="car">
        <route edges="-1160230390#1 -1160230390#0 -1273315177#2 -1273315177#1 -1273315177#0 -30709174#1 -1273315178#0 -493673938#13 -493673938#12 -493673938#11 -493673938#10 -493673938#9 -493673938#6 -493673938#5 -493673938#4 -493673938#2 -493673938#1 -493673938#0 -8112397#8 -8112397#7 -8112397#5 -8112397#4 -8112397#3 -8112397#2 -8112397#1 -8112397#0 22365381#0 22365381#1 22365381#2 22365381#3 22365381#4 22365381#5 22365381#6 22365381#7 22365381#8 22365381#9 22365381#10 189129825 29982455#0 29982455#1 292601710#2 22365376#0 22365376#1 -1015036025#1 -1015036025#0 -60335554#2 -60335554#1 -60335554#0 -4055638#7 -4055638#6 -4055638#5 -4055638#4 -4055638#2 -4055638#1 -1030693862#2 -1030693862#0 -530758947#5 -530758947#3 -530758947#1 -530758947#0 -1286805287#5 -1286805287#3 -1286805287#2 -1286805287#0 -1461880861#0 -4056147#2 -4056147#1 -4056147#0 -1461880860#0 -1292748372 4056027#2 4056027#3 -1030765626#3 -1030765626#2 -1030765626#1 -1030765626#0 -176939620#20 -176939620#19 -176939620#18 -176939620#17 -176939620#16 -176939620#15 -176939620#14 -176939620#13 -176939620#12 -176939620#11 -176939620#10 -176939620#9 -176939620#7 -176939620#6 -176939620#5 -176939620#3 -176939620#2 -176939620#1 -176939620#0 -176939619 -7988294#0 7991005 56633182 26162742 575241094 23185925#1 8066897 4761271#3 4761271#4 -468856264 -28329045 601375564 1442250140 -4761312 17978842 23186030 519388794 519388793 30342736 468856269 23186029 519372143#1 519372142#1 519372140 -519372138 -59057616 4019293 519372136 519372137 292604541 875519688#1 359842293 327462616 8071691 327462620 327462623 146291234 200614316 43309572#0 43309571#0 43309570 280346071 43309574 43309569 519366842 1442250176 43309099 519366832 158078821 1391053467 4055424#1 1376440257 1430351999 54358793#0 54358793#1 1376440982 1376440983 42415634#0 42415634#1 1170978857 528972753#0 528972753#1 528972753#2 528972753#3 528972753#5 42420264 1191557327#0 1191557327#1 1191557327#2 998251647#0 998251647#1 998251645 1376439170 1376439172 42420251#0 42420251#1 166630472#0 166630472#1 166630472#2 528972756#0 528972756#1 528972756#2 166630466#0 166630466#1 166630466#2 166630466#3 166630466#4 166630466#5 1149457500#0 1149457500#1 1149457500#2 1148287203#0 1148287203#1 998251644 1376490814#0 1376490814#1 1376490814#3 1148287202#0 1376302121#0 1376302121#3 36939780#0 36939780#1 36939780#2 36939780#3 4055325#0 4055325#1 4055325#2 34882138#0 34882138#2 34882138#4 34882138#5 34882138#6 34882138#7 493367241 4055991#0 4055991#1 493367242#1 493367242#4 1148224499#0 1148224499#1 1155635710#1 1155635710#2 4291764#1 4291764#2 4291764#3 4291764#6 4291764#8 4291763#0 36939784#0 36939784#2" />
    </vehicle>
    <vehicle id="7" depart="17.50" type="car">
        <route edges="-393288753#1 -678465070#1 -678465070#0 -678465068 -678465069#2 -678465069#0 -1210044429#6 -1210044429#5 -1210044429#3 -1210044429#2 -1210044429#1 -1210044429#0 -96214533#12 -96214533#11 -96214533#10 -96214533#9 -96214533#8 -96214533#7 -96214533#5 -96214533#4 -96214533#3 -96214533#2 -96214533#1 -96214533#0 -502369910#5 -502369910#4 -502369910#3 -502369910#2 -502369910#1 -502369910#0 -2080702#5 -2080702#4 -2080702#3 -2080702#2 -2080702#1 -2080702#0 -27176095#1 -27176095#0 -1450372373#5 -1450372373#4 -1450372373#3 -1450372373#2 -1450372373#1 -1450372373#0 -946552500 -11523402#2 -11523402#1 -11523402#0 2398599#0 2398599#1 -2398600#1 34772230#0 34772230#1 2398601#1 2398601#2 2398601#3 1387949150 90071199 371632101 84504111 1251666607 826599893#1 826599893#3 826599893#5 826599893#6 826599893#9 795942715#0 795942715#1 795942715#2 795942715#3 795942715#4 90071202 234874699 280269660 280269662 217304302#0 4629199 4629157#1 4629157#2 280270149 253331659 253331661 280271363 10035426 253331660 326360875 326360871 485742403 864003707 485742401 145779210#0 145779210#1 326369715 4247380 864003709 326372738 4005946 326372763#0 173160225 173160226 326372749 326372750 326372757#0 155063470 326372753#0 1189373076 267576355#0 263058887#1 263058887#2 263058887#3 263058887#4 1189373079 984721569#0 263058890#1 24048580 540154440#1 32450321#1 32450321#2 32450321#4 32450321#5 942221050#0 942221050#1 13930103#0 13930103#1 180860176 -1217087818 -1217087819 -32450322#1 -1217087822 -1217087829#1 -1217087829#0 -967576986 -1217087821 -1217087823 -1376524064 -1376524067 -1376524063 -35919122#1 -35919122#0 -1376524062#2 -1376524062#0 -1376524061#1 -35919123#2 -1100701926#1 -35919131#1 -35919131#0 -1100701920#1 -1100701920#0 -1100701921#1 -1100701921#0 -26725351 -35919130#0 -875519684 -222533731 -4055543 -222533729 -875519685 -217306746#1 -217306746#0 -1100701924 -1100701923 -1100701925 -217306747 -493361405 -493361406#1 -493361406#0 -1445431912#1 -1445431912#0 -1445431914 -1445431913#2 -1445431915#2 -1445431915#0 -1484487819#2 -1484487819#1 -1484487819#0 -75639266 -1100701919#2 -1100701919#0 -4268404#2 -1163469410#1 -36794489#2 -36794489#0 -1376679704 -1376679705 -34866079 -875519687#0 -37274636 -34549515 -136101305#2 -136101305#1 -136101305#0 -1376681204 -1376681203#4 -1376681203#3 -1376681203#2 -1376681203#1 -1376681203#0 -136101301#2 -136101301#1 -105186594#1 -105186594#0 -125023434 -38933550 -1353997901#0 -4055315 -1353997902 -1353997903 -48180716 -1376402213 -1376402212 -28429303#17 -28429303#16 -28429303#15 -28429303#14 -28429303#13 -28429303#12 -28429303#10 -28429303#9 -28429303#8 -28429303#6 -28429303#5 -28429303#4 -28429303#2 -28429303#1 -28429303#0 -967953227#0 -1349912713#2 -1349912713#1 -1349912713#0 -525033966#3 -525033966#1 -525033966#0 -1349912715#1 -1349912715#0 -1351806509#11 -1351806509#10 -1351806509#9 -1351806509#8 -1351806509#7 -1351806509#6 -1351806509#4 -1351806509#3 -1351806509#2 -1351806509#1 -1351806509#0 -28429008#1 -28429008#0 -28429007#4 -28429007#3 -28429007#2 -28429007#1 -28429007#0 -1163469409 -1163469408 -10635307#9 -10635307#8 -10635307#7 -10635307#6 -10635307#5 -10635307#4 -10635307#3 -10635307#2 -10635307#0 -1009088813 4282842#0 4282842#1 4282842#2 1009088812#0 1009088812#1 975292788#0 975292788#1 975292788#2 34549361#0 34549361#3 34549361#4 34549361#5 34549387#0 34549387#1 34549387#2 81186707#0 81186707#1 23072310#0 23072310#1 23072310#2 23072310#3 23072310#4 1163469407#1 1163469407#2 1163469406#0 1163469406#1 1163469405#0 1163469405#1 1163469405#2 1040466807#0 1040466807#1 1040466807#2 1040466807#3 1040466807#4 1040466807#5 1040466807#6 1040466807#7 1040466807#8 1040466807#9 1040466807#10 4282843#0 4282843#1 4282843#2 4282843#3 984751149 75125956#1 482638904#1 482638904#2 1376682903 23474204#0 23474204#1 23474204#2 23474204#3 23474204#4 23474204#5" />
    </vehicle>
    <vehicle id="8" depart="20.00" type="car">
        <route edges="421504449 251505078 327464674 280421285 143575548 182556974 182556969 292625289 38870400 -10742000 -184627123#1 -184627123#0 -200614326 182556971 327473093 327473095 182556972 143578406 280421998#0 280421998#1 280421998#2 327464676 251505089 251505092 830912806 327462610 24398472 667663343 327462630 311169644 327462626 327462628 24398471#0 24398471#1 25653721 25653722 200614316 43309572#0 43309571#0 43309570 280346071 43309574 43309569 519366842 1442250176 43309099 519366832 158078821 1391053467 4055424#1 1376440257 1430351999 54358793#0 54358793#1 1376440982 1376440983 42415634#0 42415634#1 1170978857 528972753#0 528972753#1 528972753#2 528972753#3 528972753#5 42420264 1191557327#0 1191557327#1 1191557327#2 998251647#0 998251647#1 998251645 1376439170 1376439172 42420251#0 42420251#1 166630472#0 166630472#1 166630472#2 528972756#0 528972756#1 528972756#2 166630466#0 166630466#1 166630466#2 166630466#3 166630466#4 166630466#5 1149457500#0 1149457500#1 1149457500#2 1148287203#0 1148287203#1 998251644 1376490814#0 1376490814#1 1376490814#3 1148287202#0 1376302121#0 1376302121#3 36939780#0 36939780#1 36939780#2 36939780#3 4055325#0 4055325#1 4055325#2 34882138#0 34882138#2 34882138#4 34882138#5 34882138#6 34882138#7 493367241 4055991#0 4055991#1 493367242#1 493367242#4 1148224499#0 1148224499#1 1155635710#1 1155635710#2 4291764#1 4291764#2 4291764#3 4291764#6 4291764#8 4291763#0 36939784#0 36939784#2 36939784#6 36939784#7 36939784#9 36939784#12 36939784#13 36939784#14 36939784#17 36939784#18 36939784#20 36939784#21 36939784#22 36939784#23 36939784#24 1381166414 4291765#0 4291765#1 4291765#2 4291765#3 36939789#0 36939789#3 36939789#5 36939789#6 36939789#7 493364229#0 493364229#1 397971364#0 493364228#2 493364228#5 36939790#0 36939790#1 1376096241 1206107651 1206107652 495722561#0 495722561#1 495722561#4 495722561#6 938554653#1 938554653#2 130449700#0 130449700#1 130449700#2 130449700#3 130449700#4 130449700#5 139293970 4291766 1157982615 130449722#1 1390554870 1390554871 186965565#0 186965565#1 1066610754#0 1066610754#1 186965564#0 186965564#1 -1353997902 -1353997903 -48180716 -1376402213 -1376402212 -28429303#17 -28429303#16 -28429303#15 -28429303#14 -28429303#13 -28429303#12 -28429303#10 -28429303#9 -28429303#8 -28429303#6 -28429303#5 -28429303#4 -28429303#2 -28429303#1 -28429303#0 -967953227#0 -1349912713#2 -1349912713#1 -1349912713#0 -525033966#3 -525033966#1 -525033966#0 -1349912715#1 -1349912715#0 -1351806509#11 -1351806509#10 -1351806509#9 -1351806509#8 -1351806509#7 -1351806509#6 -1351806509#4 -1351806509#3 -1351806509#2 -1351806509#1 -1351806509#0 -28429008#1 -28429008#0 -28429007#4 -28429007#3 -28429007#2 -28429007#1 -28429007#0 -1163469409 -1163469408 -10635307#9 -10635307#8 -10635307#7 -10635307#6 -10635307#5 -10635307#4 -10635307#3 -10635307#2 -10635307#0 -1009088813 4282842#0 4282842#1 4282842#2 1009088812#0 1009088812#1 975292788#0 975292788#1 975292788#2 34549361#0 34549361#3 34549361#4 34549361#5 34549387#0 34549387#1 34549387#2 81186707#0 81186707#1 23072310#0 23072310#1 23072310#2 23072310#3 23072310#4 1163469407#1 1163469407#2 1163469406#0 1163469406#1 1163469405#0 1163469405#1 1163469405#2 1040466807#0 1040466807#1" />
    </vehicle>
    <vehicle id="9" depart="22.50" type="car">
        <route edges="-410711695#6 -410711695#5 -410711695#4 -410711695#3 -410711695#2 -410711695#0 -13873102 -1006890236#4 -1006890236#3 -1006890236#2 -1006890236#1 -1006890236#0 -1376108678 -1380331250 -647001850#1 -647001850#0 -1390096980#1 -1390096980#0 -102858508#7 -102858508#6 -102858508#5 -102858508#4 -102858508#3 -102858508#2 -102858508#0 -441828030#3 -441828030#2 -441828030#1 -441828030#0 -441828031 -48781531#1 -48781531#0 -1381967172#0 -123943388#0 -48781532#0 -1382013241 -1382013240 -27803374#4 -27803374#3 -27803374#1 -27803374#0 -368350800#1 -368350800#0 -1382014938 -472265495#3 -472265495#2 -472265495#0 -27803372#2 -27803372#1 -27803372#0 -38871649#1 -38871649#0 -259398503#5 -259398503#3 -259398503#2 -259398503#1 -259398503#0 -968525812#1 -968525812#0 -968525811#0 -919986342#0 -890194381 -1050380532#5 -1050380532#4 -1050380532#3 -1050380532#2 -1050380532#1 -1050380532#0 -27803373#3 -27803373#2 -27803373#1 -27803373#0 -209086864#3 -209086864#2 -209086864#0 -38871156#1 -38871156#0 -111792278 38870394 384473491 493682474 292625289 38870400 -10742000 -184627123#1 -184627123#0 -200614326 182556971 327473093 327473095 182556972 143578406 280421998#0 280421998#1 280421998#2 327464676 251505089 251505092 830912806 327462610 251505090 10564392 327462613 28784068#0 28784068#1 326367892 8071474 237841427 864003708#0 145779210#0 145779210#1 326369715 4247380 864003709 326372738 205696729 326372747 326372745 253346710 326372741 326372743 205696727 205696730 3995753 32456945" />
    </vehicle>
    <vehicle id="10" depart="25.00" type="car">
        <route edges="7991005 56633182 26162742 575241094 23185925#1 8066897 4761271#3 4761271#4 -468856264 -28329045 601375564 1442250140 -4761312 17978842 23186030 519388794 519388793 30342736 468856269 23186029 519372143#1 519372142#1 519372140 -519372138 -59057616 4019293 519372136 519372137 292604541 875519688#1 359842293 327462616 8071691 4361070 -1442250181 25653719 55717669 327462624 327462632 10564392 327462613 28784068#0 28784068#1 326367892 8071474 237841427 864003708#0 145779210#0 145779210#1 326369715 4247380 864003709 326372738 4005946 326372763#0 102489827 820118026#0 32848326#1 758810785 4534426#1 1061052807#0 28972602#1 543408496#0 757457498 28969252 93973288 31291985#1 31291985#2 31291985#3 31291985#4 31291985#5 31291985#6 31291985#7 613250477 613250476#0 613250476#1 613250476#3 613250476#4 613250476#5 52922036#1 52922036#2 52922036#4 52922036#5 52922036#6 52922036#7 52922036#8 52922036#9 52922036#10 27717143#1 27717143#2 27717143#3 27717143#4 27717143#5 714391639#0 1162853614#0 1162853614#1 1162853614#2 1162853614#3 1162853614#4 1162853614#5 1162853614#6 1162853614#7 1313269156#1 1313269156#2 1313269251#0 1313269251#1 1313269251#2 1313269251#3 1313269251#4 1313269251#5 1313269251#6 27717145#0 27717145#2 27717145#4 27717145#5 27717145#6 27717145#7 27717145#8 27717145#9 27717145#10 27717145#11 27717145#12 27717145#13 27717145#15 27717145#16 27717145#17 27717145#18 27828611#0 27828611#1 1419933751 4704017 213202425#1 4958969#0 4958969#1 4958969#2 1120836496#0 1120836496#1 1120836496#2 1120836496#3 1120836496#5 1120836496#6 1120836496#7 1120836496#8 1120836496#9 1120836496#10 371750135#3 371750135#4 371750135#5 371750135#7 371750135#9 371750135#10 371750135#12 55806924#0 55806924#1 55806924#2 31351859 31351858#0" />
    </vehicle>
    <vehicle id="11" depart="27.50" type="car">
        <route edges="-224243811#0 -84207160#2 -84207160#1 -84207160#0 -1377730276#1 -1377730276#0 -1377730277 -25016277#2 -25016277#1 -25016277#0 25016278#4 25016278#1 25016278#2 -43483064#15 -43483064#11 -43483064#9 -43483064#8 -43483064#7 -43483064#6 -43483064#4 -43483064#3 -43483064#2 -43483064#1 288902603#0 288902603#1 288902602#1 288902602#2 288902602#3 288902602#4 288902598#0 288902598#1 8046502#0 8046502#2 8046502#3 8046502#4 8046502#5 8046502#6 8046502#7 371935543 26615964 175877091#0 175877091#1 292602375#4 292602375#5 292602375#6 175877081#0 175877081#1 175877084 468904364 776617880 576978967#5 601367903 238795792 468903583 856697535 856263359#5 856263359#6 856263359#7 856263362 8046503#0 8046503#1 875519692 384325129#4 384325129#5 384325129#6 875519691 601383481 186475968 292602376#5 292602376#6 292602376#7 179839043 179839346 193770690#0 193770690#1 23186028 211493753 211493752 28329045 468856264 4761271#1 4761271#2 -8066897 -8066898" />
    </vehicle>
    <vehicle id="12" depart="30.00" type="car">
        <route edges="-166630466#0 -1381124008 -528972756#1 -528972756#0 -24710106 -166630472#1 -166630472#0 -42420251#1 -42420251#0 -1376439172 -1376439170 -998251645 -998251647#1 -998251647#0 -1191557327#2 -1191557327#1 -1191557327#0 -42420264 -528972753#5 -528972753#3 -528972753#2 -528972753#1 -528972753#0 -1170978857 -42415634#1 -42415634#0 -1376440983 -1376440982 -54358793#1 -54358793#0 -1430351999 -1376440257 -4055424#1 -4055424#0 158078822#0 158078822#1 -1376442319 -520064176 -519366832 -519366834 -372646205 -519366842 -43309569 -17695086 -280346071 -26652961 26652795 1442250191-AddedOnRampEdge 1442250191 251505085 327462614 327464675 251505081 251505078 327464674 280421285 143575548 182556974 182556969 292625289 38870400 -10742000 -184627123#1 -184627123#0 -200614326 -200614327 -184627122#2 -184627122#1" />
    </vehicle>
    <vehicle id="13" depart="32.50" type="car">
        <route edges="410711702#4 410711702#5 410711702#6 410711702#7 410711702#9 410711702#11 410711702#12 759961777 35200414#0 35200414#1 35200414#2 4277246#0 4277246#1 1390711161 1390711160#0 1390711160#1 1376411310 35200413#0 35200413#1 4277226#1 4277226#2 4277226#3 1364088836 4264449 609850536#0 609850536#2 609850536#3 609850536#4 609850536#5 35200412#0 35200412#1 35200412#2 35200412#3 35200412#5 1380317612 498181944 1380317613 10564764#0 10564764#1 10564764#2 10564764#3 10564764#4 1436760007#0 1436760010#0 1436760010#1 4264448#0 4264448#1 4264448#2 4264448#4 4264448#6 4264448#9 666707334#0 666707334#1 666707334#2 666707334#3 666707334#4 666707334#5 666707334#6 666707334#7 666707334#8 666707334#9 666707334#11 666707334#12 1376669229#1 1376669229#3 1376669229#4 1376669230 984721567#0 984721567#1 984721567#2 1376669231#0 1376669231#1 1376098893 1149415221 4313810#0 4313810#1 32469432#0 32469432#1 32469432#2 32469432#3 1376096988#0 1376096988#1 1376096988#2 984721570#0 984721570#1 292627158#0 292627158#1 292627158#2 292627158#3 292627158#4 1149415229 1376221490 1390095749 1390553719#1 1380343402#1 1380343402#2 1380343402#3 1380343404#1 1390553720#1 32469433#1 32469433#2 32469433#3 32469433#4 104869601#0 104869601#1 104869601#2 104869601#3 1377067542 79486835 79486836 77721631 528977272 868823409 868823410 104869600 1303385764#1 986924153 1380341160 528977273#0 528977273#1 528977273#2 528977273#3 1252920814 868823413 126290418 77721630#0 77721630#1 35200217#1 35200217#2 1376221491 -34882136 1195001359 33920066#0 33920066#1 6065324#1 6065324#2 493367236 4291769#0 4291769#1 493367237 1376221492#0 1376221493#0 493367243 36939781#0 36939781#1 36939781#4 493367242#1 493367242#4 1148224499#0 1148224499#1 1155635710#1 1155635710#2 4291764#1 4291764#2 4291764#3 4291764#6 4291764#8 4291763#0 36939784#0 36939784#2 36939784#6 36939784#7 36939784#9 36939784#12 36939784#13 36939784#14 36939784#17 36939784#18 36939784#20 36939784#21 36939784#22 36939784#23 36939784#24 1381166414 4291765#0 4291765#1 4291765#2 4291765#3 36939789#0 36939789#3 36939789#5 36939789#6 36939789#7 493364229#0 493364229#1 397971364#0 493364228#2 493364228#5 36939790#0 36939790#1 1376096241 1206107651 1206107652 495722561#0 495722561#1 495722561#4 495722561#6 938554653#1 938554653#2 130449700#0 130449700#1 130449700#2 130449700#3 130449700#4 130449700#5 139293970 4291766 1157982615 130449722#1 1390554870 1390554871 186965565#0 186965565#1 1066610754#0 1066610754#1 186965564#0 186965564#1 4055315 1353997901#0 1353997901#1 125023434 105186601 105186594#1 136101301#1 136101301#2 1376681203#0 1376681203#1 1376681203#2 1376681203#3 1376681203#4 1376681204 136101305#0 136101305#1 136101305#2 34549515" />
    </vehicle>
    <vehicle id="14" depart="35.00" type="car">