<?xml version="1.0" encoding="UTF-8"?>

<!-- generated on 2026-04-16 20:08:31.231190 by Eclipse SUMO randomTrips.py v1_26_0+0000-fa7df22d7f1
<configuration>
    <net-file value="D:\SUMO_A9_Project\sumo\a8_corridor.net.xml"/>
    <output-trip-file value="D:\SUMO_A9_Project\routes\a8_random.trips.xml"/>
    <route-file value="D:\SUMO_A9_Project\routes\a8_random.rou.xml"/>
    <fringe-factor value="10"/>
    <allow-fringe value="True"/>
    <remove-loops value="True"/>
    <period value="2.5"/>
</configuration>
-->

<routes xmlns:xsi="http://www.w3.org/2001/XMLSchema-instance" xsi:noNamespaceSchemaLocation="http://sumo.dlr.de/xsd/routes_file.xsd">
    <trip id="0" depart="0.00" from="280269660" to="-1149482148"/>
    <trip id="1" depart="2.50" from="-493360262" to="-4055631#0"/>
    <trip id="2" depart="5.00" from="34605733" to="313731021#0"/>
    <trip id="3" depart="7.50" from="528977272" to="-146643686#5"/>
    <trip id="4" depart="10.00" from="1162853614#7" to="-1163469407#1"/>
    <trip id="5" depart="12.50" from="-38871649#1" to="145307249"/>
    <trip id="6" depart="15.00" from="-1160230390#1" to="-36939784#4"/>
    <trip id="7" depart="17.50" from="-393288753#1" to="23474204#5"/>
    <trip id="8" depart="20.00" from="421504449" to="-1040466807#1"/>
    <trip id="9" depart="22.50" from="410711695#6" to="32456945"/>
    <trip id="10" depart="25.00" from="-7991005" to="-31351858#0"/>
    <trip id="11" depart="27.50" from="84207160#3" to="-8066898"/>
    <trip id="12" depart="30.00" from="-166630466#0" to="-184627122#1"/>
    <trip id="13" depart="32.50" from="410711702#4" to="34549515"/>
    <trip id="14" depart="35.00" from="169487436#1" to="89698975#6"/>
    <trip id="15" depart="37.50" from="-984721575#0" to="186965564#0"/>
    <trip id="16" depart="40.00" from="43309571#0" to="26824916#2"/>
    <trip id="17" depart="42.50" from="4878695#7" to="224243811#2"/>
    <trip id="18" depart="45.00" from="325033882" to="-1286805306"/>
    <trip id="19" depart="47.50" from="-4055638#2" to="-519372141"/>
    <trip id="20" depart="50.00" from="-1425250947#0" to="-41678207#0"/>
    <trip id="21" depart="52.50" from="-18628357#1" to="-494708203#6"/>
    <trip id="22" depart="55.00" from="27743997#1" to="-968525811#0"/>
    <trip id="23" depart="57.50" from="-96214533#4" to="-37961527"/>
    <trip id="24" depart="60.00" from="-48088972#0" to="775724795"/>
    <trip id="25" depart="62.50" from="288902598#0" to="259398503#1"/>
    <trip id="26" depart="65.00" from="-33190837#3" to="34549387#0"/>
    <trip id="27" depart="67.50" from="-32235541" to="101081594"/>
    <trip id="28" depart="70.00" from="97262150#2" to="280422002"/>
    <trip id="29" depart="72.50" from="184987905#2" to="316275794"/>
    <trip id="30" depart="75.00" from="46710596#30" to="38259356#1"/>
    <trip id="31" depart="77.50" from="-4055796#11" to="-11761313#5"/>
    <trip id="32" depart="80.00" from="-552416002#4" to="-48781531#1"/>
    <trip id="33" depart="82.50" from="-372648896" to="8046503#0"/>
    <trip id="34" depart="85.00" from="497779061#1" to="-584603344"/>
    <trip id="35" depart="87.50" from="290579662#1" to="10635307#3"/>
    <trip id="36" depart="90.00" from="575171839#0" to="1376221498#1"/>
    <trip id="37" depart="92.50" from="-4761312" to="-43483064#9"/>
    <trip id="38" depart="95.00" from="186965564#1" to="-47675597#4"/>
    <trip id="39" depart="97.50" from="22365381#1" to="530535863#4"/>
    <trip id="40" depart="100.00" from="1057789612#0" to="-40525485#8"/>
    <trip id="41" depart="102.50" from="9933762#1" to="146643686#3"/>
    <trip id="42" depart="105.00" from="-152921446#1" to="-1292748372"/>
    <trip id="43" depart="107.50" from="-209086864#2" to="27717145#4"/>
    <trip id="44" depart="110.00" from="4009840" to="1210568580#3"/>
    <trip id="45" depart="112.50" from="-1376305872#1" to="10200036#1"/>
    <trip id="46" depart="115.00" from="986924153" to="166630466#5"/>
    <trip id="47" depart="117.50" from="88687695#0" to="490200951"/>
    <trip id="48" depart="120.00" from="-10564764#4" to="33428777#2"/>
    <trip id="49" depart="122.50" from="31351671#6" to="176939620#21"/>
    <trip id="50" depart="125.00" from="-48088972#0" to="280422003"/>
    <trip id="51" depart="127.50" from="-213197801#1" to="126760931#1"/>
    <trip id="52" depart="130.00" from="130896347#4" to="830912806"/>
    <trip id="53" depart="132.50" from="497739115#1" to="-48088972#2"/>
    <trip id="54" depart="135.00" from="563798645" to="493367237"/>
    <trip id="55" depart="137.50" from="-519388813" to="280422000"/>
    <trip id="56" depart="140.00" from="253327115" to="-30723832"/>
    <trip id="57" depart="142.50" from="36939789#5" to="17695096"/>
    <trip id="58" depart="145.00" from="37982622#0" to="171825696"/>
    <trip id="59" depart="147.50" from="-1005834858#1" to="-666707334#4"/>
    <trip id="60" depart="150.00" from="-1100701924" to="678465069#0"/>
    <trip id="61" depart="152.50" from="500167119#1" to="452003153#1"/>
    <trip id="62" depart="155.00" from="-530535863#4" to="-1364088836"/>
    <trip id="63" depart="157.50" from="49797457#2" to="8112397#0"/>
    <trip id="64" depart="160.00" from="-1442250216" to="1423348446#3"/>
    <trip id="65" depart="162.50" from="-1376679705" to="36947610#4"/>
    <trip id="66" depart="165.00" from="3707399" to="-25664390#10"/>
    <trip id="67" depart="167.50" from="1376681203#3" to="184991320#2"/>
    <trip id="68" depart="170.00" from="-4763825#1" to="493673938#11"/>
    <trip id="69" depart="172.50" from="1163469408" to="-381493208#0"/>
    <trip id="70" depart="175.00" from="175877081#1" to="34567681#1"/>
    <trip id="71" depart="177.50" from="-36939781#1" to="-555770913"/>
    <trip id="72" depart="180.00" from="984803652" to="290408041#0"/>
    <trip id="73" depart="182.50" from="1252055163#13" to="150954653#1-AddedOnRampEdge"/>
    <trip id="74" depart="185.00" from="-23451067#2" to="-4055796#10"/>
    <trip id="75" depart="187.50" from="-779997499#1" to="23451067#8"/>
    <trip id="76" depart="190.00" from="-4055796#22" to="-4055424#1"/>
    <trip id="77" depart="192.50" from="-1377730276#1" to="27803373#1"/>
    <trip id="78" depart="195.00" from="-4055796#11" to="543408497#0"/>
    <trip id="79" depart="197.50" from="4872976#2" to="-1380325353"/>
    <trip id="80" depart="200.00" from="-42420264" to="30819906"/>
    <trip id="81" depart="202.50" from="-381485874#1" to="-26427775#7"/>
    <trip id="82" depart="205.00" from="77089307#2" to="217404013"/>
    <trip id="83" depart="207.50" from="1376524063" to="398153944#1"/>
    <trip id="84" depart="210.00" from="410711702#6" to="-36778766#2"/>
    <trip id="85" depart="212.50" from="-176939620#20" to="1252055163#8"/>
    <trip id="86" depart="215.00" from="1163469410#0" to="1376524062#0"/>
    <trip id="87" depart="217.50" from="34072174" to="31291985#4"/>
    <trip id="88" depart="220.00" from="96214533#5" to="-184991320#1"/>
    <trip id="89" depart="222.50" from="1062926561" to="-814305290"/>
    <trip id="90" depart="225.00" from="4878695#7" to="-455883524#0"/>
    <trip id="91" depart="227.50" from="-35200412#2" to="130897589"/>
    <trip id="92" depart="230.00" from="1162853614#7" to="-495722561#0"/>
    <trip id="93" depart="232.50" from="-43483064#3" to="613250476#3"/>
    <trip id="94" depart="235.00" from="182556972" to="-130896347#4"/>
    <trip id="95" depart="237.50" from="875519696" to="666707334#1"/>
    <trip id="96" depart="240.00" from="4716969#1" to="-32623945#6"/>
    <trip id="97" depart="242.50" from="1393378776#4" to="-38259356#0"/>
    <trip id="98" depart="245.00" from="1062926546" to="-1376096988#0"/>
    <trip id="99" depart="247.50" from="-984803651" to="96678477#0"/>
    <trip id="100" depart="250.00" from="-4763825#1" to="393288753#0"/>
    <trip id="101" depart="252.50" from="1313269156#1" to="1215459593#0"/>
    <trip id="102" depart="255.00" from="84504111" to="984803654#1"/>
    <trip id="103" depart="257.50" from="184980572#0" to="32963803#2"/>
    <trip id="104" depart="260.00" from="-30819906" to="-528977273#3"/>
    <trip id="105" depart="262.50" from="875519696" to="22931828"/>
    <trip id="106" depart="265.00" from="176939620#16" to="367014398#0"/>
    <trip id="107" depart="267.50" from="-1351806509#7" to="233728745#0"/>
    <trip id="108" depart="270.00" from="1442250176" to="47674015#1"/>
    <trip id="109" depart="272.50" from="-31351858#1" to="8614295#6"/>
    <trip id="110" depart="275.00" from="-1425250949#1" to="-35200412#2"/>
    <trip id="111" depart="277.50" from="23451067#4" to="31351858#1"/>
    <trip id="112" depart="280.00" from="-410711702#3" to="-23451067#7"/>
    <trip id="113" depart="282.50" from="525033966#1" to="-43483064#7"/>
    <trip id="114" depart="285.00" from="23451067#2" to="26825274#1"/>
    <trip id="115" depart="287.50" from="1160230390#0" to="23186029"/>
    <trip id="116" depart="290.00" from="1484487821" to="77089307#0"/>
    <trip id="117" depart="292.50" from="-36939789#6" to="32836634"/>
    <trip id="118" depart="295.00" from="-4264448#4" to="10635307#4"/>
    <trip id="119" depart="297.50" from="30819502#1" to="-530535863#10"/>
    <trip id="120" depart="300.00" from="-55264244#1" to="36794489#0"/>
    <trip id="121" depart="302.50" from="-1380341160" to="1376221493#0"/>
    <trip id="122" depart="305.00" from="997964003#2" to="986924153"/>
    <trip id="123" depart="307.50" from="-1381124008" to="-381493208#0"/>
    <trip id="124" depart="310.00" from="-4763825#1" to="75124790#0"/>
    <trip id="125" depart="312.50" from="502369910#3" to="500167119#1"/>
    <trip id="126" depart="315.00" from="-96214533#11" to="-316226143#1"/>
    <trip id="127" depart="317.50" from="254368127#1" to="968525812#1"/>
    <trip id="128" depart="320.00" from="290408041#0" to="-1040466807#9"/>
    <trip id="129" depart="322.50" from="4270947#1" to="-52977564#6"/>
    <trip id="130" depart="325.00" from="294239809#4" to="779997499#1"/>
    <trip id="131" depart="327.50" from="-27717143#1" to="-23185957#1"/>
    <trip id="132" depart="330.00" from="-207472071#16" to="191474474"/>
    <trip id="133" depart="332.50" from="-4902090#1" to="25484166"/>
    <trip id="134" depart="335.00" from="327464676" to="-371750135#9"/>
    <trip id="135" depart="337.50" from="27743806#1" to="-482638904#1"/>
    <trip id="136" depart="340.00" from="1420336263#1" to="543408497#0"/>
    <trip id="137" depart="342.50" from="468856264" to="-176939619"/>
    <trip id="138" depart="345.00" from="1163469410#0" to="-493673938#6"/>
    <trip id="139" depart="347.50" from="-1020605119#0" to="37483196#1"/>
    <trip id="140" depart="350.00" from="27803374#1" to="-4763825#6"/>
    <trip id="141" depart="352.50" from="35200322#0" to="186473629"/>
    <trip id="142" depart="355.00" from="1191557327#0" to="-1050380532#3"/>
    <trip id="143" depart="357.50" from="-1390096980#1" to="506150949#8"/>
    <trip id="144" depart="360.00" from="543408491#2" to="184734288"/>
    <trip id="145" depart="362.50" from="4534426#1" to="23185957#3"/>
    <trip id="146" depart="365.00" from="-292627158#1" to="-25653724"/>
    <trip id="147" depart="367.50" from="-530535863#9" to="530535866#0"/>
    <trip id="148" depart="370.00" from="4055436#2" to="4878695#7"/>
    <trip id="149" depart="372.50" from="530535866#5" to="-37982614#1"/>
    <trip id="150" depart="375.00" from="-43483064#15" to="-204010540#7"/>
    <trip id="151" depart="377.50" from="381485874#2" to="511296352"/>
    <trip id="152" depart="380.00" from="10790143#0" to="26825274#1"/>
    <trip id="153" depart="382.50" from="-30819906" to="70039049#1"/>
    <trip id="154" depart="385.00" from="493188766#4" to="915815948"/>
    <trip id="155" depart="387.50" from="421504449" to="502369910#3"/>
    <trip id="156" depart="390.00" from="-1149482148" to="34916816#4"/>
    <trip id="157" depart="392.50" from="-75097452#1" to="75078156#2"/>
    <trip id="158" depart="395.00" from="4055796#4" to="493188765#0"/>
    <trip id="159" depart="397.50" from="421504449" to="-4856270"/>
    <trip id="160" depart="400.00" from="392862084#1" to="-211493757#1"/>
    <trip id="161" depart="402.50" from="493673938#13" to="4872976#2"/>
    <trip id="162" depart="405.00" from="-4055325#0" to="4277227#0"/>
    <trip id="163" depart="407.50" from="1351806509#4" to="-54117832#0"/>
    <trip id="164" depart="410.00" from="4055325#2" to="-4055991#0"/>
    <trip id="165" depart="412.50" from="-1149415221" to="-36939776#0"/>
    <trip id="166" depart="415.00" from="-666707334#8" to="493188766#0"/>
    <trip id="167" depart="417.50" from="875519684" to="-495722564"/>
    <trip id="168" depart="420.00" from="280342519" to="10901655"/>
    <trip id="169" depart="422.50" from="942221057#0" to="176939620#17"/>
    <trip id="170" depart="425.00" from="779997499#0" to="-23185957#0"/>
    <trip id="171" depart="427.50" from="88687686#0" to="-34602735#0"/>
    <trip id="172" depart="430.00" from="8614295#6" to="-48407655#2"/>
    <trip id="173" depart="432.50" from="-207472071#9" to="126760930#3"/>
    <trip id="174" depart="435.00" from="34003493#0" to="-563798644"/>
    <trip id="175" depart="437.50" from="25016277#1" to="146792851"/>
    <trip id="176" depart="440.00" from="10073624" to="22365381#6"/>
    <trip id="177" depart="442.50" from="-46710596#11" to="326360875"/>
    <trip id="178" depart="445.00" from="-1009088812#0" to="656317945#1"/>
    <trip id="179" depart="447.50" from="172507240" to="33190837#2"/>
    <trip id="180" depart="450.00" from="-90071202" to="-1377730276#0"/>
    <trip id="181" depart="452.50" from="29982455#1" to="-77089307#2"/>
    <trip id="182" depart="455.00" from="-54358793#1" to="4760991#0"/>
    <trip id="183" depart="457.50" from="32836634" to="-530535863#12"/>
    <trip id="184" depart="460.00" from="-530535866#5" to="1149995645#1"/>
    <trip id="185" depart="462.50" from="1062926561" to="-528972756#0"/>
    <trip id="186" depart="465.00" from="-256262777#5" to="1206107651"/>
    <trip id="187" depart="467.50" from="79587329#2" to="314271665"/>
    <trip id="188" depart="470.00" from="54309961#2" to="26756149#1"/>
    <trip id="189" depart="472.50" from="-52834619#0" to="184987905#3"/>
    <trip id="190" depart="475.00" from="-1005834858#0" to="-511296353"/>
    <trip id="191" depart="477.50" from="1210044429#3" to="22931828"/>
    <trip id="192" depart="480.00" from="290408042#4" to="1376440258"/>
    <trip id="193" depart="482.50" from="126614956#0" to="-38259356#0"/>
    <trip id="194" depart="485.00" from="1376524525#1" to="531713481#0"/>
    <trip id="195" depart="487.50" from="4055436#1" to="-33428777#7"/>
    <trip id="196" depart="490.00" from="-1442250159" to="150515090"/>
    <trip id="197" depart="492.50" from="27717145#2" to="-8046502#5"/>
    <trip id="198" depart="495.00" from="4274287" to="36783270#4"/>
    <trip id="199" depart="497.50" from="30819906" to="-4055796#10"/>
    <trip id="200" depart="500.00" from="-36939778#2" to="-1149457500#2"/>
    <trip id="201" depart="502.50" from="-4291760#0" to="1381967173"/>
    <trip id="202" depart="505.00" from="47374152#0" to="-1381957933"/>
    <trip id="203" depart="507.50" from="1135781582#3" to="27743806#8"/>
    <trip id="204" depart="510.00" from="-36778766#0" to="32450769#1"/>
    <trip id="205" depart="512.50" from="1425250959" to="-432792066"/>
    <trip id="206" depart="515.00" from="290579662#4" to="-1030765626#1"/>
    <trip id="207" depart="517.50" from="36564531#0" to="372649416"/>
    <trip id="208" depart="520.00" from="-207472071#13" to="122224141#0"/>
    <trip id="209" depart="522.50" from="-33920066#0" to="854407862#7"/>
    <trip id="210" depart="525.00" from="145779209#1" to="-130896347#2"/>
    <trip id="211" depart="527.50" from="-43483064#1" to="4760991#2"/>
    <trip id="212" depart="530.00" from="1315305080#0" to="4055796#7"/>
    <trip id="213" depart="532.50" from="30616217" to="97260960#0"/>
    <trip id="214" depart="535.00" from="23451067#7" to="826599893#3"/>
    <trip id="215" depart="537.50" from="528972753#3" to="26427775#15"/>
    <trip id="216" depart="540.00" from="327464679" to="1451395491"/>
    <trip id="217" depart="542.50" from="43483064#3" to="184987905#2"/>
    <trip id="218" depart="545.00" from="530535863#4" to="35877887#1"/>
    <trip id="219" depart="547.50" from="1376679705" to="-472265495#0"/>
    <trip id="220" depart="550.00" from="-4298834" to="280346071"/>
    <trip id="221" depart="552.50" from="3707399" to="152541394#0"/>
    <trip id="222" depart="555.00" from="269571143" to="-493367242#4"/>
    <trip id="223" depart="557.50" from="-1391055943#1" to="-506150949#7"/>
    <trip id="224" depart="560.00" from="-48781532#0" to="-60579739#0"/>
    <trip id="225" depart="562.50" from="175877091#1" to="-27743806#7"/>
    <trip id="226" depart="565.00" from="-4055796#6" to="32344255#2"/>
    <trip id="227" depart="567.50" from="32623952#1" to="-1376440257"/>
    <trip id="228" depart="570.00" from="1086393580#1" to="179839043"/>
    <trip id="229" depart="572.50" from="1148287203#1" to="-37274636"/>
    <trip id="230" depart="575.00" from="1160230391#3" to="543408491#3"/>
    <trip id="231" depart="577.50" from="22365376#0" to="32450321#5"/>
    <trip id="232" depart="580.00" from="4828227#2" to="37256444#2"/>
    <trip id="233" depart="582.50" from="-987000327#3" to="-1030765626#3"/>
    <trip id="234" depart="585.00" from="-838105555#0" to="36939778#13"/>
    <trip id="235" depart="587.50" from="4763825#6" to="829378101#4"/>
    <trip id="236" depart="590.00" from="1157984459#0" to="36103746#1"/>
    <trip id="237" depart="592.50" from="-397971364#1" to="-4055315"/>
    <trip id="238" depart="595.00" from="1249160924#3" to="-1163469405#1"/>
    <trip id="239" depart="597.50" from="-770892391" to="316052826#0"/>
    <trip id="240" depart="600.00" from="10635307#3" to="-32469433#2"/>
    <trip id="241" depart="602.50" from="1376223185#2" to="-25653725"/>
    <trip id="242" depart="605.00" from="26652837" to="-1160230390#2"/>
    <trip id="243" depart="607.50" from="1040466807#5" to="211505775"/>
    <trip id="244" depart="610.00" from="-1160230391#2" to="28429303#12"/>
    <trip id="245" depart="612.50" from="-27717145#13" to="1376305872#1"/>
    <trip id="246" depart="615.00" from="-130896347#4" to="101081594"/>
    <trip id="247" depart="617.50" from="-37483196#3" to="-70039049#2"/>
    <trip id="248" depart="620.00" from="36939784#22" to="101081594"/>
    <trip id="249" depart="622.50" from="367014401#1" to="4534426#1"/>
    <trip id="250" depart="625.00" from="-444978262#1" to="-1442250153"/>
    <trip id="251" depart="627.50" from="-1100701924" to="17695096"/>
    <trip id="252" depart="630.00" from="998251647#1" to="-8614295#5"/>
    <trip id="253" depart="632.50" from="289220241" to="392862084#0"/>
    <trip id="254" depart="635.00" from="8112397#5" to="-36939784#9"/>
    <trip id="255" depart="637.50" from="-111792278" to="-30616226#2"/>
    <trip id="256" depart="640.00" from="-254368127#2" to="30909675#1"/>
    <trip id="257" depart="642.50" from="198362553" to="-398153944#0"/>
    <trip id="258" depart="645.00" from="32441857#0" to="37262991#1"/>
    <trip id="259" depart="647.50" from="-32469433#0" to="25664304#3"/>
    <trip id="260" depart="650.00" from="35919128" to="-23072310#0"/>
    <trip id="261" depart="652.50" from="4274287" to="871792712#0"/>
    <trip id="262" depart="655.00" from="-207472071#7" to="-1154549483#2"/>
    <trip id="263" depart="657.50" from="-54117832#1" to="314271665"/>
    <trip id="264" depart="660.00" from="854043150#1" to="1066610754#0"/>
    <trip id="265" depart="662.50" from="326372768#0" to="-1390712502#0"/>
    <trip id="266" depart="665.00" from="-186965565#1" to="37982613#0"/>
    <trip id="267" depart="667.50" from="47374152#3" to="251505089"/>
    <trip id="268" depart="670.00" from="-23451067#2" to="96214533#4"/>
    <trip id="269" depart="672.50" from="384326134" to="-854043153"/>
    <trip id="270" depart="675.00" from="120190002#1" to="-984721570#0"/>
    <trip id="271" depart="677.50" from="1442250201" to="-826599893#9"/>
    <trip id="272" depart="680.00" from="47270697" to="4291765#0"/>
    <trip id="273" depart="682.50" from="-204015986#2" to="8614295#6"/>
    <trip id="274" depart="685.00" from="27743997#0" to="43483064#9"/>
    <trip id="275" depart="687.50" from="326360860" to="126760946#1"/>
    <trip id="276" depart="690.00" from="34567684" to="875519687#0"/>
    <trip id="277" depart="692.50" from="-48407655#8" to="421514315#1"/>
    <trip id="278" depart="695.00" from="171825697" to="1420336263#2"/>
    <trip id="279" depart="697.50" from="1249160924#2" to="34584911#3"/>
    <trip id="280" depart="700.00" from="-4828227#1" to="4763825#2"/>
    <trip id="281" depart="702.50" from="43483064#4" to="-146643686#2"/>
    <trip id="282" depart="705.00" from="1376221490" to="263058887#1"/>
    <trip id="283" depart="707.50" from="-984803651" to="-1162853614#6"/>
    <trip id="284" depart="710.00" from="4760993#0" to="-34916816#1"/>
    <trip id="285" depart="712.50" from="-37828866" to="4055638#2"/>
    <trip id="286" depart="715.00" from="-7991005" to="50077996#5"/>
    <trip id="287" depart="717.50" from="32450324#1" to="-493673938#4"/>
    <trip id="288" depart="720.00" from="-105186594#0" to="8112397#8"/>
    <trip id="289" depart="722.50" from="-1442250216" to="33190837#6"/>
    <trip id="290" depart="725.00" from="1420336263#1" to="36939784#23"/>
    <trip id="291" depart="727.50" from="1423348446#0" to="4055436#0"/>
    <trip id="292" depart="730.00" from="-166630466#2" to="-4055436#7"/>
    <trip id="293" depart="732.50" from="31787222#1" to="-54309961#1"/>
    <trip id="294" depart="735.00" from="218292822" to="1380343402#1"/>
    <trip id="295" depart="737.50" from="156357787#0" to="122224141#2"/>
    <trip id="296" depart="740.00" from="35877180#1" to="-77721515#1"/>
    <trip id="297" depart="742.50" from="32469433#1" to="-493360278"/>
    <trip id="298" depart="745.00" from="-441828030#0" to="-23474204#3"/>
    <trip id="299" depart="747.50" from="-35919124#4" to="-23451067#5"/>
    <trip id="300" depart="750.00" from="166630472#1" to="371347852#8"/>
    <trip id="301" depart="752.50" from="-34916816#2" to="-38517406#0"/>
    <trip id="302" depart="755.00" from="1391055943#2" to="33920066#0"/>
    <trip id="303" depart="757.50" from="914116637" to="158057242#6"/>
    <trip id="304" depart="760.00" from="-494708203#4" to="-193770690#0"/>
    <trip id="305" depart="762.50" from="-367014396" to="-4055796#8"/>
    <trip id="306" depart="765.00" from="-34549361#0" to="-1062926588"/>
    <trip id="307" depart="767.50" from="165421648#0" to="-493367242#2"/>
    <trip id="308" depart="770.00" from="90071203" to="193017761#0"/>
    <trip id="309" depart="772.50" from="322760498#0" to="-256262777#2"/>
    <trip id="310" depart="775.00" from="493364228#5" to="143581161"/>
    <trip id="311" depart="777.50" from="493673938#5" to="220131873#4"/>
    <trip id="312" depart="780.00" from="1376414675#1" to="1286805299"/>
    <trip id="313" depart="782.50" from="795942715#2" to="1390711160#0"/>
    <trip id="314" depart="785.00" from="4282842#0" to="1100701919#0"/>
    <trip id="315" depart="787.50" from="-1382013240" to="27743806#6"/>
    <trip id="316" depart="790.00" from="-1313269251#1" to="-302285367#2"/>
    <trip id="317" depart="792.50" from="193017761#3" to="-530758947#5"/>
    <trip id="318" depart="795.00" from="984751149" to="-23451067#2"/>
    <trip id="319" depart="797.50" from="3707399" to="256262777#8"/>
    <trip id="320" depart="800.00" from="1484487819#2" to="1313269251#4"/>
    <trip id="321" depart="802.50" from="97262152#2" to="-54117832#1"/>
    <trip id="322" depart="805.00" from="26485155#0" to="259398503#5"/>
    <trip id="323" depart="807.50" from="34916816#0" to="8112397#4"/>
    <trip id="324" depart="810.00" from="-371750135#9" to="-37997817#1"/>
    <trip id="325" depart="812.50" from="292601722#18" to="-315142595#3"/>
    <trip id="326" depart="815.00" from="-33428780#4" to="-1390227162#2"/>
    <trip id="327" depart="817.50" from="-1011066799" to="1313269251#4"/>
    <trip id="328" depart="820.00" from="23451067#2" to="-519388809"/>
    <trip id="329" depart="822.50" from="-4055796#7" to="326360862"/>
    <trip id="330" depart="825.00" from="32469433#2" to="1351806509#9"/>
    <trip id="331" depart="827.50" from="316226143#3" to="638652305"/>
    <trip id="332" depart="830.00" from="392862088#0" to="27717143#1"/>
    <trip id="333" depart="832.50" from="292601722#6" to="75125956#1"/>
    <trip id="334" depart="835.00" from="28784068#1" to="55264244#0"/>
    <trip id="335" depart="837.50" from="4305432" to="-1380331250"/>
    <trip id="336" depart="840.00" from="-32441857#1" to="-545778341#1"/>
    <trip id="337" depart="842.50" from="35919129#6" to="217306182#2"/>
    <trip id="338" depart="845.00" from="-50077996#6" to="-24543564"/>
    <trip id="339" depart="847.50" from="316275799#0" to="32473364"/>
    <trip id="340" depart="850.00" from="8046502#4" to="1443208420"/>
    <trip id="341" depart="852.50" from="1425250957#3" to="-1425250957#4"/>
    <trip id="342" depart="855.00" from="-1252055163#11" to="1259683350#1"/>
    <trip id="343" depart="857.50" from="-60336064#4" to="-46710596#0"/>
    <trip id="344" depart="860.00" from="-158057242#0" to="8614505"/>
    <trip id="345" depart="862.50" from="814305292#0" to="998251645"/>
    <trip id="346" depart="865.00" from="30819502#1" to="-493360261"/>
    <trip id="347" depart="867.50" from="-1252055163#13" to="36939781#4"/>
    <trip id="348" depart="870.00" from="1376440982" to="290579662#1"/>
    <trip id="349" depart="872.50" from="57690455#6" to="-34882138#6"/>
    <trip id="350" depart="875.00" from="22365381#5" to="27928464"/>
    <trip id="351" depart="877.50" from="1423348449#2" to="-166630466#5"/>
    <trip id="352" depart="880.00" from="-827718157#1" to="-795942715#1"/>
    <trip id="353" depart="882.50" from="30720834#5" to="4856270"/>
    <trip id="354" depart="885.00" from="-678465070#1" to="32344255#0"/>
    <trip id="355" depart="887.50" from="-50077996#3" to="8093394#0"/>
    <trip id="356" depart="890.00" from="4264448#6" to="186257146"/>
    <trip id="357" depart="892.50" from="130897592#2" to="-584603342#1"/>
    <trip id="358" depart="895.00" from="-60579739#0" to="894571340#1"/>
    <trip id="359" depart="897.50" from="10635307#2" to="149800402"/>
    <trip id="360" depart="900.00" from="97260960#1" to="292604541"/>
    <trip id="361" depart="902.50" from="176939620#18" to="1162853614#7"/>
    <trip id="362" depart="905.00" from="-35200322#0" to="-96214533#10"/>
    <trip id="363" depart="907.50" from="36939778#11" to="27717143#3"/>
    <trip id="364" depart="910.00" from="36939784#13" to="-371750135#9"/>
    <trip id="365" depart="912.50" from="179839787" to="666707334#7"/>
    <trip id="366" depart="915.00" from="1252055163#13" to="32456945"/>
    <trip id="367" depart="917.50" from="-23451067#4" to="89698975#6"/>
    <trip id="368" depart="920.00" from="253327114" to="-4277246#1"/>
    <trip id="369" depart="922.50" from="-315142595#0" to="18628350#0"/>
    <trip id="370" depart="925.00" from="184734291" to="-176939620#12"/>
    <trip id="371" depart="927.50" from="984721567#0" to="575241104"/>
    <trip id="372" depart="930.00" from="1353997901#1" to="-23186030"/>
    <trip id="373" depart="932.50" from="4364375#0" to="1442250192"/>
    <trip id="374" depart="935.00" from="327462626" to="146537576"/>
    <trip id="375" depart="937.50" from="184627122#2" to="102858508#5"/>
    <trip id="376" depart="940.00" from="60336064#2" to="146537576"/>
    <trip id="377" depart="942.50" from="50077996#1" to="493188765#0"/>
    <trip id="378" depart="945.00" from="-493360278" to="4009855#1"/>
    <trip id="379" depart="947.50" from="1135781582#6" to="758810786#0"/>
    <trip id="380" depart="950.00" from="1442250202" to="428922462"/>
    <trip id="381" depart="952.50" from="-494708203#3" to="-52977564#1"/>
    <trip id="382" depart="955.00" from="1423348441#0" to="-294239809#2"/>
    <trip id="383" depart="957.50" from="172507241#0" to="-838105555#0"/>
    <trip id="384" depart="960.00" from="184734289" to="180860177#1"/>
    <trip id="385" depart="962.50" from="1313269251#0" to="-613250476#5"/>
    <trip id="386" depart="965.00" from="-35200325#1" to="32456945"/>
    <trip id="387" depart="967.50" from="207472071#1" to="-42420251#0"/>
    <trip id="388" depart="970.00" from="37483196#0" to="-1273315177#1"/>
    <trip id="389" depart="972.50" from="35200414#1" to="32623945#4"/>
    <trip id="390" depart="975.00" from="421514315#3" to="1040466807#10"/>
    <trip id="391" depart="977.50" from="942221056#0" to="1442250147#1"/>
    <trip id="392" depart="980.00" from="-122739754#1" to="1445431915#0"/>
    <trip id="393" depart="982.50" from="23185925#1" to="493364244"/>
    <trip id="394" depart="985.00" from="494708203#8" to="1286805299"/>
    <trip id="395" depart="987.50" from="150515313#6" to="1376096241"/>
    <trip id="396" depart="990.00" from="33046474" to="1155635710#2"/>
    <trip id="397" depart="992.50" from="290408042#4" to="-31291985#7"/>
    <trip id="398" depart="995.00" from="1376437609" to="88687691"/>
    <trip id="399" depart="997.50" from="-79486835" to="322760498#2"/>
    <trip id="400" depart="1000.00" from="4763066" to="487845692"/>
    <trip id="401" depart="1002.50" from="-987000327#1" to="-601383481"/>
    <trip id="402" depart="1005.00" from="327464679" to="36939789#6"/>